
-------------------------------------------------------------------------
|    ___ _   _ ___                                                      |
|   / __| | | |_  )   Release 8.0.0 "Harrier"                           |
|   \__ \ |_| |/ /                                                      |
|   |___/\___//___|   Suite (Computational Fluid Dynamics Code)         |
|                                                                       |
-------------------------------------------------------------------------
| SU2 Project Website: https://su2code.github.io                        |
|                                                                       |
| The SU2 Project is maintained by the SU2 Foundation                   |
| (http://su2foundation.org)                                            |
-------------------------------------------------------------------------
| Copyright 2012-2023, SU2 Contributors                                 |
|                                                                       |
| SU2 is free software; you can redistribute it and/or                  |
| modify it under the terms of the GNU Lesser General Public            |
| License as published by the Free Software Foundation; either          |
| version 2.1 of the License, or (at your option) any later version.    |
|                                                                       |
| SU2 is distributed in the hope that it will be useful,                |
| but WITHOUT ANY WARRANTY; without even the implied warranty of        |
| MERCHANTABILITY or FITNESS FOR A PARTICULAR PURPOSE. See the GNU      |
| Lesser General Public License for more details.                       |
|                                                                       |
| You should have received a copy of the GNU Lesser General Public      |
| License along with SU2. If not, see <http://www.gnu.org/licenses/>.   |
-------------------------------------------------------------------------

Parsing config file for zone 0

----------------- Physical Case Definition ( Zone 0 ) -------------------
Compressible RANS equations.
Turbulence model: Spalart-Allmaras-noft2
Hybrid RANS/LES: No Hybrid RANS/LES
Mach number: 0.734.
Angle of attack (AoA): 2.31 deg, and angle of sideslip (AoS): 0 deg.
Reynolds number: 6.5e+06. Reference length 1.
Fixed CL mode, target value: 0.824.
Reading and writing binary SU2 native restart files.
Read flow solution from: solution_flow.dat.
Dimensional simulation.
The reference area is 1 m^2.
The semi-span will be computed using the max y(3D) value.
The reference length is 1 m.
Reference origin for moment evaluation is (0.25, 0, 0).
Surface(s) where the force coefficients are evaluated: AIRFOIL.

Surface(s) plotted in the output file: AIRFOIL.
Surface(s) affected by the design variables: AIRFOIL.
Input mesh file name: mesh_RAE2822_turb_deform.su2

--------------- Space Numerical Integration ( Zone 0 ) ------------------
Jameson-Schmidt-Turkel scheme (2nd order in space) for the flow inviscid terms.
JST viscous coefficients (2nd & 4th): 0.5, 0.02.
The method includes a grid stretching correction (p = 0.3).
Scalar upwind solver for the turbulence model.
First order integration in space.
Average of gradients with correction (viscous flow terms).
Average of gradients with correction (viscous turbulence terms).
Gradient for viscous and source terms: inverse-distance weighted Least-Squares.

--------------- Time Numerical Integration  ( Zone 0 ) ------------------
Local time stepping (steady state simulation).
Euler implicit method for the flow equations.
FGMRES is used for solving the linear system.
Using a ILU(0) preconditioning.
Convergence criteria of the linear solver: 1e-06.
Max number of linear iterations: 10.
No CFL adaptation.
Courant-Friedrichs-Lewy number:       10
Euler implicit time integration for the turbulence model.

------------------ Convergence Criteria  ( Zone 0 ) ---------------------
Maximum number of solver subiterations: 5500.
Begin convergence monitoring at iteration 10.
Residual minimum value: 1e-12.
Cauchy series min. value: 1e-06.
Number of Cauchy elements: 100.
Begin windowed time average at iteration 0.

-------------------- Output Information ( Zone 0 ) ----------------------
File writing frequency: 
+------------------------------------+
|                     File| Frequency|
+------------------------------------+
|                  RESTART|     10000|
|                 PARAVIEW|     10000|
|         SURFACE_PARAVIEW|     10000|
|              SURFACE_CSV|     10000|
+------------------------------------+
Writing the convergence history file every 1 inner iterations.
Writing the screen convergence history every 1 inner iterations.
The tabular file format is CSV (.csv).
Convergence history file name: history_direct.
Forces breakdown file name: forces_breakdown.dat.
Surface file name: surface_flow.
Volume file name: flow.
Restart file name: restart_flow.dat.

------------- Config File Boundary Information ( Zone 0 ) ---------------
+-----------------------------------------------------------------------+
|                        Marker Type|                        Marker Name|
+-----------------------------------------------------------------------+
|                          Far-field|                           FARFIELD|
+-----------------------------------------------------------------------+
|                     Heat flux wall|                            AIRFOIL|
+-----------------------------------------------------------------------+

-------------------- Output Preprocessing ( Zone 0 ) --------------------

WARNING: SURFACE_PRESSURE_DROP can only be computed for at least 2 surfaces (outlet, inlet, ...)

Screen output fields: INNER_ITER, RMS_DENSITY, RMS_NU_TILDE, LIFT, DRAG
History output group(s): ITER, RMS_RES, AERO_COEFF
Convergence field(s): RMS_DENSITY
Warning: No (valid) fields chosen for time convergence monitoring. Time convergence monitoring inactive.
Volume output fields: COORDINATES, SOLUTION, PRIMITIVE

------------------- Geometry Preprocessing ( Zone 0 ) -------------------
Two dimensional problem.
13937 grid points before partitioning.
22842 volume elements before partitioning.
2 surface markers.
192 boundary elements in index 0 (Marker = AIRFOIL).
40 boundary elements in index 1 (Marker = FARFIELD).
Executing the partitioning functions.
Building the graph adjacency structure.
Calling ParMETIS... graph partitioning complete (831 edge cuts).
Distributing ParMETIS coloring.
Rebalancing vertices.
Rebalancing volume element connectivity.
Rebalancing markers and surface elements.
14875 vertices including ghost points. 
23674 interior elements including halo cells. 
18780 triangles.
4894 quadrilaterals.
Establishing MPI communication patterns.
Setting point connectivity.
Renumbering points (Reverse Cuthill McKee Ordering).
Recomputing point connectivity.
Setting element connectivity.
Checking the numerical grid orientation.
All volume elements are correctly orientend.
All surface elements are correctly orientend.
Identifying edges and vertices.
Setting the control volume structure.
Area of the computational grid: 32209.9.
Searching for the closest normal neighbors to the surfaces.
Storing a mapping from global to local point index.
Compute the surface curvature.
Max K: 188.565. Mean K: 8.08441. Standard deviation K: 25.4456.
Checking for periodicity.
Computing mesh quality statistics for the dual control volumes.
+--------------------------------------------------------------+
|           Mesh Quality Metric|        Minimum|        Maximum|
+--------------------------------------------------------------+
|    Orthogonality Angle (deg.)|        74.8752|        89.9999|
|     CV Face Area Aspect Ratio|         1.0052|        3358.36|
|           CV Sub-Volume Ratio|        1.00047|        1217.99|
+--------------------------------------------------------------+
Finding max control volume width.
Communicating number of neighbors.
Wetted area = 2.02145 m.
Area projection in the x-plane = 0.126197 m, y-plane = 0.995873 m.
Max. coordinate in the x-direction = 1 m, y-direction = 0.0619959 m.
Min. coordinate in the x-direction = 0 m, y-direction = -0.0607938 m.
Computing wall distances.

-------------------- Solver Preprocessing ( Zone 0 ) --------------------
WARNING: AoA in the solution file (2.78037 deg.) +
         AoA offset in mesh file (0 deg.) = 2.78037 deg.
WARNING: SU2 will use the dCD/dCL provided in the direct solution file: 0.0182983.
WARNING: SU2 will use the dCMz/dCL provided in the direct solution file: 0.00805807.
Viscous flow: Computing pressure using the ideal gas law
based on the free-stream temperature and a density computed
from the Reynolds number.
Force coefficients computed using free-stream values.

-- Models:
+------------------------------------------------------------------------------+
|          Viscosity Model|        Conductivity Model|              Fluid Model|
+------------------------------------------------------------------------------+
|               SUTHERLAND|          CONSTANT_PRANDTL|             STANDARD_AIR|
+------------------------------------------------------------------------------+
-- Fluid properties:
+------------------------------------------------------------------------------+
|                  Name|    Dim. value|    Ref. value|      Unit|Non-dim. value|
+------------------------------------------------------------------------------+
|        Ref. Viscosity|     1.716e-05|             1|   N.s/m^2|     1.716e-05|
|      Sutherland Temp.|        273.15|             1|         K|        273.15|
|     Sutherland Const.|         110.4|             1|         K|         110.4|
+------------------------------------------------------------------------------+
|        Prandtl (Lam.)|             -|             -|         -|          0.71|
|       Prandtl (Turb.)|             -|             -|         -|           0.9|
+------------------------------------------------------------------------------+
|          Gas Constant|       287.058|             1|  N.m/kg.K|       287.058|
|      Spec. Heat Ratio|             -|             -|         -|           1.4|
+------------------------------------------------------------------------------+
-- Initial and free-stream conditions:
+------------------------------------------------------------------------------+
|                  Name|    Dim. value|    Ref. value|      Unit|Non-dim. value|
+------------------------------------------------------------------------------+
|       Static Pressure|         38515|             1|        Pa|         38515|
|               Density|      0.465631|             1|    kg/m^3|      0.465631|
|           Temperature|        288.15|             1|         K|        288.15|
|          Total Energy|        237984|             1|   m^2/s^2|        237984|
|            Velocity-X|       249.484|             1|       m/s|       249.484|
|            Velocity-Y|       12.1161|             1|       m/s|       12.1161|
|    Velocity Magnitude|       249.778|             1|       m/s|       249.778|
+------------------------------------------------------------------------------+
|             Viscosity|    1.7893e-05|             1|   N.s/m^2|    1.7893e-05|
|          Conductivity|             -|             1|   W/m^2.K|             -|
|     Turb. Kin. Energy|       233.959|             1|   m^2/s^2|       233.959|
|     Spec. Dissipation|        608834|             1|       1/s|        608834|
+------------------------------------------------------------------------------+
|           Mach Number|             -|             -|         -|         0.734|
|       Reynolds Number|             -|             -|         -|       6.5e+06|
+------------------------------------------------------------------------------+
Initialize Jacobian structure (Navier-Stokes). MG level: 0.
Initialize Jacobian structure (SA model).

------------------- Numerics Preprocessing ( Zone 0 ) -------------------

----------------- Integration Preprocessing ( Zone 0 ) ------------------

------------------- Iteration Preprocessing ( Zone 0 ) ------------------
Euler/Navier-Stokes/RANS fluid iteration.

------------------------------ Begin Solver -----------------------------

Simulation Run using the Single-zone Driver
WARNING: SU2 was not compiled for an AVX-capable architecture. Performance could be better,
         see https://su2code.github.io/docs_v7/Build-SU2-Linux-MacOS/#compiler-optimizations
+----------------------------------------------------------------+
|  Inner_Iter|    rms[Rho]|     rms[nu]|          CL|          CD|
+----------------------------------------------------------------+
|           0|   -6.060244|   -7.474974|    0.824006|    0.012007|
|           1|   -6.115060|   -7.577635|    0.824009|    0.012007|
|           2|   -6.172410|   -7.710087|    0.824009|    0.012008|
|           3|   -6.216447|   -7.872780|    0.824008|    0.012008|
|           4|   -6.247588|   -8.048378|    0.824007|    0.012008|
|           5|   -6.267213|   -8.165376|    0.824007|    0.012008|
|           6|   -6.276879|   -8.167921|    0.824006|    0.012008|
|           7|   -6.278804|   -8.126630|    0.824006|    0.012008|
|           8|   -6.275214|   -8.090383|    0.824006|    0.012008|
|           9|   -6.267871|   -8.059567|    0.824007|    0.012008|
|          10|   -6.258084|   -8.026140|    0.824008|    0.012008|
|          11|   -6.246924|   -7.989478|    0.824009|    0.012009|
|          12|   -6.235315|   -7.955769|    0.824009|    0.012009|
|          13|   -6.223972|   -7.931761|    0.824010|    0.012009|
|          14|   -6.213321|   -7.921531|    0.824011|    0.012010|
|          15|   -6.203547|   -7.926503|    0.824012|    0.012010|
|          16|   -6.194732|   -7.946087|    0.824013|    0.012011|
|          17|   -6.186992|   -7.977652|    0.824013|    0.012012|
|          18|   -6.180526|   -8.015647|    0.824013|    0.012012|
|          19|   -6.175570|   -8.050674|    0.824013|    0.012013|
|          20|   -6.172287|   -8.071380|    0.824013|    0.012013|
|          21|   -6.170687|   -8.071420|    0.824012|    0.012014|
|          22|   -6.170595|   -8.054856|    0.824011|    0.012014|
|          23|   -6.171685|   -8.031781|    0.824010|    0.012014|
|          24|   -6.173557|   -8.010850|    0.824009|    0.012015|
|          25|   -6.175812|   -7.996692|    0.824008|    0.012015|
|          26|   -6.178118|   -7.990723|    0.824007|    0.012015|
|          27|   -6.180232|   -7.992414|    0.824006|    0.012015|
|          28|   -6.182001|   -8.000086|    0.824004|    0.012015|
|          29|   -6.183338|   -8.011393|    0.824003|    0.012015|
|          30|   -6.184200|   -8.023725|    0.824002|    0.012015|
|          31|   -6.184564|   -8.034705|    0.824001|    0.012015|
|          32|   -6.184412|   -8.042738|    0.824000|    0.012015|
|          33|   -6.183725|   -8.047350|    0.823999|    0.012015|
|          34|   -6.182489|   -8.049147|    0.823998|    0.012015|
|          35|   -6.180706|   -8.049384|    0.823997|    0.012015|
|          36|   -6.178401|   -8.049455|    0.823996|    0.012014|
|          37|   -6.175629|   -8.050510|    0.823995|    0.012014|
|          38|   -6.172470|   -8.053276|    0.823994|    0.012014|
|          39|   -6.169019|   -8.058024|    0.823994|    0.012014|
|          40|   -6.165368|   -8.064606|    0.823993|    0.012013|
|          41|   -6.161601|   -8.072521|    0.823992|    0.012013|
|          42|   -6.157777|   -8.081002|    0.823991|    0.012013|
|          43|   -6.153935|   -8.089128|    0.823990|    0.012013|
|          44|   -6.150088|   -8.095978|    0.823990|    0.012012|
|          45|   -6.146226|   -8.100808|    0.823989|    0.012012|
|          46|   -6.142324|   -8.103205|    0.823988|    0.012012|
|          47|   -6.138336|   -8.103173|    0.823988|    0.012011|
|          48|   -6.134210|   -8.101105|    0.823987|    0.012011|
|          49|   -6.129888|   -8.097661|    0.823987|    0.012011|
|          50|   -6.125317|   -8.093611|    0.823986|    0.012011|
|          51|   -6.120457|   -8.089689|    0.823986|    0.012011|
|          52|   -6.115291|   -8.086503|    0.823986|    0.012010|
|          53|   -6.109830|   -8.084493|    0.823985|    0.012010|
|          54|   -6.104111|   -8.083927|    0.823985|    0.012010|
|          55|   -6.098198|   -8.084918|    0.823985|    0.012010|
|          56|   -6.092175|   -8.087461|    0.823986|    0.012009|
|          57|   -6.086131|   -8.091453|    0.823986|    0.012009|
|          58|   -6.080159|   -8.096721|    0.823986|    0.012009|
|          59|   -6.074340|   -8.103040|    0.823987|    0.012009|
|          60|   -6.068741|   -8.110140|    0.823987|    0.012009|
|          61|   -6.063406|   -8.117720|    0.823988|    0.012009|
|          62|   -6.058360|   -8.125447|    0.823989|    0.012008|
|          63|   -6.053609|   -8.132978|    0.823990|    0.012008|
|          64|   -6.049141|   -8.139976|    0.823990|    0.012008|
|          65|   -6.044936|   -8.146150|    0.823991|    0.012008|
|          66|   -6.040968|   -8.151292|    0.823992|    0.012008|
|          67|   -6.037210|   -8.155309|    0.823993|    0.012008|
|          68|   -6.033643|   -8.158247|    0.823994|    0.012008|
|          69|   -6.030257|   -8.160275|    0.823994|    0.012008|
|          70|   -6.027049|   -8.161655|    0.823995|    0.012007|
|          71|   -6.024029|   -8.162688|    0.823996|    0.012007|
|          72|   -6.021211|   -8.163658|    0.823996|    0.012007|
|          73|   -6.018612|   -8.164786|    0.823997|    0.012007|
|          74|   -6.016252|   -8.166195|    0.823997|    0.012007|
|          75|   -6.014142|   -8.167898|    0.823998|    0.012007|
|          76|   -6.012290|   -8.169807|    0.823998|    0.012007|
|          77|   -6.010693|   -8.171756|    0.823999|    0.012007|
|          78|   -6.009338|   -8.173537|    0.823999|    0.012007|
|          79|   -6.008205|   -8.174943|    0.823999|    0.012007|
|          80|   -6.007269|   -8.175810|    0.824000|    0.012007|
|          81|   -6.006498|   -8.176048|    0.824000|    0.012007|
|          82|   -6.005862|   -8.175654|    0.824000|    0.012007|
|          83|   -6.005333|   -8.174713|    0.824000|    0.012007|
|          84|   -6.004888|   -8.173376|    0.824000|    0.012007|
|          85|   -6.004511|   -8.171834|    0.824000|    0.012007|
|          86|   -6.004194|   -8.170289|    0.824001|    0.012007|
|          87|   -6.003938|   -8.168927|    0.824001|    0.012007|
|          88|   -6.003750|   -8.167901|    0.824001|    0.012007|
|          89|   -6.003648|   -8.167320|    0.824001|    0.012007|
|          90|   -6.003654|   -8.167252|    0.824001|    0.012007|
|          91|   -6.003794|   -8.167721|    0.824001|    0.012007|
|          92|   -6.004101|   -8.168718|    0.824001|    0.012007|
|          93|   -6.004605|   -8.170212|    0.824001|    0.012007|
|          94|   -6.005342|   -8.172152|    0.824002|    0.012008|
|          95|   -6.006342|   -8.174482|    0.824002|    0.012008|
|          96|   -6.007635|   -8.177144|    0.824002|    0.012008|
|          97|   -6.009245|   -8.180084|    0.824002|    0.012008|
|          98|   -6.011192|   -8.183254|    0.824002|    0.012008|
|          99|   -6.013485|   -8.186613|    0.824003|    0.012008|
|         100|   -6.016126|   -8.190128|    0.824003|    0.012008|
|         101|   -6.019105|   -8.193772|    0.824003|    0.012008|
+-----------------------------------------------------------------------+
|Fixed CL Mode                           |Value                         |
+-----------------------------------------------------------------------+
|Current CL                              |0.824003                      |
|Target CL                               |0.824                         |
|Previous AOA                            |2.78037                       |
|Changed AoA by                          |-1.38963e-05                  |
+-----------------------------------------------------------------------+
+----------------------------------------------------------------+
|  Inner_Iter|    rms[Rho]|     rms[nu]|          CL|          CD|
+----------------------------------------------------------------+
|         102|   -5.047262|   -8.194569|    0.824003|    0.012008|
|         103|   -5.412103|   -8.199775|    0.824004|    0.012008|
|         104|   -5.613963|   -8.204118|    0.824004|    0.012009|
|         105|   -5.675635|   -8.208343|    0.824004|    0.012009|
|         106|   -5.721991|   -8.212535|    0.824005|    0.012009|
|         107|   -5.779593|   -8.216703|    0.824005|    0.012009|
|         108|   -5.844935|   -8.220837|    0.824005|    0.012009|
|         109|   -5.906574|   -8.224925|    0.824005|    0.012009|
|         110|   -5.954426|   -8.228949|    0.824006|    0.012010|
|         111|   -5.986147|   -8.232887|    0.824006|    0.012010|
|         112|   -6.004670|   -8.236712|    0.824006|    0.012010|
|         113|   -6.013287|   -8.240400|    0.824006|    0.012010|
|         114|   -6.014841|   -8.243931|    0.824007|    0.012010|
|         115|   -6.012484|   -8.247283|    0.824007|    0.012010|
|         116|   -6.009226|   -8.250435|    0.824007|    0.012011|
|         117|   -6.006942|   -8.253370|    0.824007|    0.012011|
|         118|   -6.006023|   -8.256075|    0.824007|    0.012011|
|         119|   -6.005800|   -8.258542|    0.824007|    0.012011|
|         120|   -6.005299|   -8.260767|    0.824007|    0.012011|
|         121|   -6.003882|   -8.262756|    0.824007|    0.012011|
|         122|   -6.001469|   -8.264517|    0.824007|    0.012011|
|         123|   -5.998383|   -8.266066|    0.824007|    0.012012|
|         124|   -5.995049|   -8.267422|    0.824007|    0.012012|
|         125|   -5.991799|   -8.268611|    0.824007|    0.012012|
|         126|   -5.988831|   -8.269660|    0.824006|    0.012012|
|         127|   -5.986251|   -8.270601|    0.824006|    0.012012|
|         128|   -5.984114|   -8.271464|    0.824006|    0.012012|
|         129|   -5.982441|   -8.272278|    0.824006|    0.012012|
|         130|   -5.981218|   -8.273067|    0.824006|    0.012012|
|         131|   -5.980402|   -8.273850|    0.824006|    0.012012|
|         132|   -5.979932|   -8.274638|    0.824006|    0.012012|
|         133|   -5.979749|   -8.275438|    0.824006|    0.012012|
|         134|   -5.979805|   -8.276245|    0.824006|    0.012012|
|         135|   -5.980063|   -8.277051|    0.824006|    0.012012|
|         136|   -5.980490|   -8.277843|    0.824006|    0.012013|
|         137|   -5.981047|   -8.278603|    0.824006|    0.012013|
|         138|   -5.981686|   -8.279312|    0.824005|    0.012013|
|         139|   -5.982353|   -8.279951|    0.824005|    0.012013|
|         140|   -5.982985|   -8.280505|    0.824005|    0.012013|
|         141|   -5.983521|   -8.280962|    0.824005|    0.012013|
|         142|   -5.983913|   -8.281318|    0.824005|    0.012013|
|         143|   -5.984129|   -8.281577|    0.824005|    0.012013|
|         144|   -5.984163|   -8.281748|    0.824005|    0.012013|
|         145|   -5.984035|   -8.281853|    0.824005|    0.012013|
|         146|   -5.983784|   -8.281920|    0.824005|    0.012013|
|         147|   -5.983455|   -8.281983|    0.824005|    0.012013|
|         148|   -5.983093|   -8.282082|    0.824005|    0.012013|
|         149|   -5.982729|   -8.282263|    0.824005|    0.012013|
|         150|   -5.982379|   -8.282572|    0.824005|    0.012013|
|         151|   -5.982042|   -8.283054|    0.824005|    0.012013|
|         152|   -5.981704|   -8.283753|    0.824005|    0.012013|
|         153|   -5.981345|   -8.284706|    0.824005|    0.012013|
|         154|   -5.980940|   -8.285949|    0.824005|    0.012013|
|         155|   -5.980472|   -8.287506|    0.824004|    0.012013|
|         156|   -5.979929|   -8.289394|    0.824004|    0.012013|
|         157|   -5.979305|   -8.291622|    0.824004|    0.012013|
|         158|   -5.978604|   -8.294188|    0.824004|    0.012013|
|         159|   -5.977838|   -8.297078|    0.824004|    0.012013|
|         160|   -5.977019|   -8.300273|    0.824003|    0.012013|
|         161|   -5.976168|   -8.303741|    0.824003|    0.012013|
|         162|   -5.975304|   -8.307445|    0.824003|    0.012013|
|         163|   -5.974448|   -8.311340|    0.824003|    0.012013|
|         164|   -5.973624|   -8.315379|    0.824002|    0.012013|
|         165|   -5.972852|   -8.319511|    0.824002|    0.012013|
|         166|   -5.972153|   -8.323687|    0.824002|    0.012013|
|         167|   -5.971546|   -8.327860|    0.824002|    0.012013|
|         168|   -5.971047|   -8.331988|    0.824001|    0.012013|
|         169|   -5.970668|   -8.336035|    0.824001|    0.012013|
|         170|   -5.970417|   -8.339975|    0.824001|    0.012013|
|         171|   -5.970294|   -8.343789|    0.824001|    0.012013|
|         172|   -5.970298|   -8.347469|    0.824001|    0.012012|
|         173|   -5.970418|   -8.351014|    0.824000|    0.012012|
|         174|   -5.970642|   -8.354434|    0.824000|    0.012012|
|         175|   -5.970951|   -8.357742|    0.824000|    0.012012|
|         176|   -5.971325|   -8.360959|    0.824000|    0.012012|
|         177|   -5.971745|   -8.364106|    0.824000|    0.012012|
|         178|   -5.972189|   -8.367206|    0.824000|    0.012012|
|         179|   -5.972640|   -8.370282|    0.824000|    0.012012|
|         180|   -5.973085|   -8.373351|    0.824000|    0.012012|
|         181|   -5.973517|   -8.376429|    0.824000|    0.012012|
|         182|   -5.973933|   -8.379528|    0.824000|    0.012012|
|         183|   -5.974341|   -8.382653|    0.824000|    0.012012|
|         184|   -5.974755|   -8.385805|    0.824000|    0.012012|
|         185|   -5.975196|   -8.388980|    0.824000|    0.012012|
|         186|   -5.975695|   -8.392170|    0.824000|    0.012011|
|         187|   -5.976286|   -8.395364|    0.824000|    0.012011|
|         188|   -5.977010|   -8.398550|    0.824000|    0.012011|
|         189|   -5.977907|   -8.401715|    0.824000|    0.012011|
|         190|   -5.979024|   -8.404844|    0.824001|    0.012011|
|         191|   -5.980402|   -8.407925|    0.824001|    0.012011|
|         192|   -5.982082|   -8.410945|    0.824001|    0.012011|
|         193|   -5.984099|   -8.413898|    0.824001|    0.012011|
|         194|   -5.986482|   -8.416776|    0.824001|    0.012011|
|         195|   -5.989251|   -8.419581|    0.824001|    0.012011|
|         196|   -5.992417|   -8.422312|    0.824001|    0.012011|
|         197|   -5.995981|   -8.424978|    0.824002|    0.012011|
|         198|   -5.999929|   -8.427585|    0.824002|    0.012011|
|         199|   -6.004236|   -8.430147|    0.824002|    0.012011|
|         200|   -6.008864|   -8.432679|    0.824002|    0.012011|
|         201|   -6.013760|   -8.435196|    0.824002|    0.012010|
+-----------------------------------------------------------------------+
|Fixed CL Mode                           |Value                         |
+-----------------------------------------------------------------------+
|Current CL                              |0.824002                      |
|Target CL                               |0.824                         |
|Previous AOA                            |2.78035                       |
|Changed AoA by                          |-1.10213e-05                  |
+-----------------------------------------------------------------------+
+----------------------------------------------------------------+
|  Inner_Iter|    rms[Rho]|     rms[nu]|          CL|          CD|
+----------------------------------------------------------------+
|         202|   -5.147561|   -8.432115|    0.824003|    0.012010|
|         203|   -5.513950|   -8.437100|    0.824003|    0.012010|
|         204|   -5.713892|   -8.440349|    0.824003|    0.012010|
|         205|   -5.766910|   -8.443368|    0.824003|    0.012010|
|         206|   -5.802963|   -8.446394|    0.824003|    0.012010|
|         207|   -5.848674|   -8.449483|    0.824004|    0.012010|
|         208|   -5.899703|   -8.452660|    0.824004|    0.012010|
|         209|   -5.945617|   -8.455935|    0.824004|    0.012010|
|         210|   -5.979393|   -8.459307|    0.824004|    0.012010|
|         211|   -6.001200|   -8.462767|    0.824004|    0.012010|
|         212|   -6.014543|   -8.466297|    0.824005|    0.012010|
|         213|   -6.022238|   -8.469892|    0.824005|    0.012010|
|         214|   -6.026111|   -8.473547|    0.824005|    0.012010|
|         215|   -6.027871|   -8.477255|    0.824005|    0.012010|
|         216|   -6.029160|   -8.481007|    0.824005|    0.012010|
|         217|   -6.031064|   -8.484789|    0.824005|    0.012010|
|         218|   -6.033846|   -8.488588|    0.824006|    0.012010|
|         219|   -6.037144|   -8.492391|    0.824006|    0.012010|
|         220|   -6.040430|   -8.496181|    0.824006|    0.012010|
|         221|   -6.043402|   -8.499939|    0.824006|    0.012010|
|         222|   -6.046111|   -8.503648|    0.824006|    0.012010|
|         223|   -6.048834|   -8.507284|    0.824006|    0.012010|
|         224|   -6.051862|   -8.510825|    0.824006|    0.012010|
|         225|   -6.055369|   -8.514250|    0.824006|    0.012010|
|         226|   -6.059404|   -8.517543|    0.824007|    0.012010|
|         227|   -6.063947|   -8.520688|    0.824007|    0.012010|
|         228|   -6.068972|   -8.523673|    0.824007|    0.012010|
|         229|   -6.074479|   -8.526489|    0.824007|    0.012010|
|         230|   -6.080490|   -8.529132|    0.824007|    0.012010|
|         231|   -6.087050|   -8.531598|    0.824007|    0.012010|
|         232|   -6.094216|   -8.533888|    0.824007|    0.012010|
|         233|   -6.102057|   -8.536005|    0.824007|    0.012010|
|         234|   -6.110643|   -8.537952|    0.824007|    0.012011|
|         235|   -6.120032|   -8.539730|    0.824007|    0.012011|
|         236|   -6.130246|   -8.541346|    0.824007|    0.012011|
|         237|   -6.141268|   -8.542804|    0.824007|    0.012011|
|         238|   -6.153024|   -8.544110|    0.824007|    0.012011|
|         239|   -6.165387|   -8.545266|    0.824007|    0.012011|
|         240|   -6.178183|   -8.546276|    0.824007|    0.012011|
|         241|   -6.191198|   -8.547144|    0.824007|    0.012011|
|         242|   -6.204200|   -8.547869|    0.824007|    0.012011|
|         243|   -6.216960|   -8.548453|    0.824008|    0.012011|
|         244|   -6.229275|   -8.548896|    0.824008|    0.012011|
|         245|   -6.240986|   -8.549199|    0.824008|    0.012011|
|         246|   -6.251983|   -8.549364|    0.824008|    0.012011|
|         247|   -6.262198|   -8.549391|    0.824008|    0.012011|
|         248|   -6.271593|   -8.549285|    0.824008|    0.012011|
|         249|   -6.280140|   -8.549050|    0.824008|    0.012011|
|         250|   -6.287810|   -8.548694|    0.824008|    0.012012|
|         251|   -6.294571|   -8.548229|    0.824008|    0.012012|
|         252|   -6.300389|   -8.547668|    0.824008|    0.012012|
|         253|   -6.305243|   -8.547028|    0.824008|    0.012012|
|         254|   -6.309138|   -8.546330|    0.824008|    0.012012|
|         255|   -6.312113|   -8.545596|    0.824007|    0.012012|
|         256|   -6.314241|   -8.544854|    0.824007|    0.012012|
|         257|   -6.315631|   -8.544132|    0.824007|    0.012012|
|         258|   -6.316415|   -8.543463|    0.824007|    0.012012|
|         259|   -6.316734|   -8.542879|    0.824007|    0.012012|
|         260|   -6.316731|   -8.542413|    0.824007|    0.012012|
|         261|   -6.316537|   -8.542098|    0.824007|    0.012012|
|         262|   -6.316268|   -8.541963|    0.824007|    0.012012|
|         263|   -6.316023|   -8.542039|    0.824007|    0.012012|
|         264|   -6.315883|   -8.542348|    0.824007|    0.012012|
|         265|   -6.315914|   -8.542911|    0.824007|    0.012012|
|         266|   -6.316171|   -8.543742|    0.824007|    0.012012|
|         267|   -6.316696|   -8.544852|    0.824006|    0.012012|
|         268|   -6.317523|   -8.546242|    0.824006|    0.012012|
|         269|   -6.318681|   -8.547907|    0.824006|    0.012012|
|         270|   -6.320189|   -8.549833|    0.824006|    0.012012|
|         271|   -6.322063|   -8.552001|    0.824006|    0.012012|
|         272|   -6.324311|   -8.554383|    0.824006|    0.012012|
|         273|   -6.326936|   -8.556944|    0.824005|    0.012012|
|         274|   -6.329936|   -8.559644|    0.824005|    0.012012|
|         275|   -6.333304|   -8.562436|    0.824005|    0.012012|
|         276|   -6.337029|   -8.565271|    0.824005|    0.012012|
|         277|   -6.341097|   -8.568100|    0.824005|    0.012012|
|         278|   -6.345488|   -8.570872|    0.824005|    0.012012|
|         279|   -6.350183|   -8.573540|    0.824004|    0.012012|
|         280|   -6.355159|   -8.576061|    0.824004|    0.012012|
|         281|   -6.360390|   -8.578402|    0.824004|    0.012012|
|         282|   -6.365847|   -8.580537|    0.824004|    0.012012|
|         283|   -6.371500|   -8.582452|    0.824004|    0.012012|
|         284|   -6.377317|   -8.584145|    0.824004|    0.012012|
|         285|   -6.383263|   -8.585629|    0.824003|    0.012012|
|         286|   -6.389300|   -8.586926|    0.824003|    0.012012|
|         287|   -6.395392|   -8.588073|    0.824003|    0.012012|
|         288|   -6.401497|   -8.589113|    0.824003|    0.012012|
|         289|   -6.407575|   -8.590100|    0.824003|    0.012012|
|         290|   -6.413587|   -8.591092|    0.824003|    0.012012|
|         291|   -6.419493|   -8.592150|    0.824003|    0.012011|
|         292|   -6.425254|   -8.593335|    0.824003|    0.012011|
|         293|   -6.430836|   -8.594709|    0.824003|    0.012011|
|         294|   -6.436207|   -8.596331|    0.824003|    0.012011|
|         295|   -6.441340|   -8.598252|    0.824003|    0.012011|
|         296|   -6.446214|   -8.600521|    0.824003|    0.012011|
|         297|   -6.450811|   -8.603179|    0.824003|    0.012011|
|         298|   -6.455122|   -8.606258|    0.824003|    0.012011|
|         299|   -6.459141|   -8.609783|    0.824003|    0.012011|
|         300|   -6.462870|   -8.613772|    0.824003|    0.012011|
|         301|   -6.466313|   -8.618233|    0.824003|    0.012011|
+-----------------------------------------------------------------------+
|Fixed CL Mode                           |Value                         |
+-----------------------------------------------------------------------+
|Current CL                              |0.824003                      |
|Target CL                               |0.824                         |
|Previous AOA                            |2.78034                       |
|Changed AoA by                          |-1.43956e-05                  |
+-----------------------------------------------------------------------+
+----------------------------------------------------------------+
|  Inner_Iter|    rms[Rho]|     rms[nu]|          CL|          CD|
+----------------------------------------------------------------+
|         302|   -5.034747|   -8.602710|    0.824003|    0.012011|
|         303|   -5.416344|   -8.617688|    0.824003|    0.012011|
|         304|   -5.652403|   -8.626375|    0.824003|    0.012011|
|         305|   -5.726575|   -8.634193|    0.824003|    0.012011|
|         306|   -5.777666|   -8.641962|    0.824003|    0.012011|
|         307|   -5.843848|   -8.649854|    0.824003|    0.012010|
|         308|   -5.924548|   -8.657900|    0.824003|    0.012010|
|         309|   -6.007301|   -8.666106|    0.824003|    0.012010|
|         310|   -6.077523|   -8.674455|    0.824004|    0.012010|
|         311|   -6.128836|   -8.682910|    0.824004|    0.012010|
|         312|   -6.163212|   -8.691427|    0.824004|    0.012010|
|         313|   -6.183956|   -8.699982|    0.824004|    0.012010|
|         314|   -6.194148|   -8.708562|    0.824004|    0.012010|
|         315|   -6.198488|   -8.717145|    0.824004|    0.012010|
|         316|   -6.202432|   -8.725695|    0.824004|    0.012010|
|         317|   -6.209743|   -8.734171|    0.824004|    0.012010|
|         318|   -6.221362|   -8.742536|    0.824004|    0.012010|
|         319|   -6.235907|   -8.750775|    0.824004|    0.012010|
|         320|   -6.251029|   -8.758886|    0.824005|    0.012010|
|         321|   -6.264892|   -8.766877|    0.824005|    0.012010|
|         322|   -6.277010|   -8.774753|    0.824005|    0.012010|
|         323|   -6.288007|   -8.782519|    0.824005|    0.012010|
|         324|   -6.298745|   -8.790179|    0.824005|    0.012010|
|         325|   -6.309628|   -8.797737|    0.824005|    0.012010|
|         326|   -6.320445|   -8.805219|    0.824005|    0.012010|
|         327|   -6.330628|   -8.812653|    0.824005|    0.012010|
|         328|   -6.339584|   -8.820065|    0.824005|    0.012010|
|         329|   -6.346907|   -8.827489|    0.824005|    0.012010|
|         330|   -6.352449|   -8.834961|    0.824006|    0.012010|
|         331|   -6.356303|   -8.842514|    0.824006|    0.012010|
|         332|   -6.358783|   -8.850173|    0.824006|    0.012010|
|         333|   -6.360368|   -8.857956|    0.824006|    0.012010|
|         334|   -6.361611|   -8.865869|    0.824006|    0.012010|
|         335|   -6.363022|   -8.873906|    0.824006|    0.012010|
|         336|   -6.364970|   -8.882048|    0.824006|    0.012010|
|         337|   -6.367629|   -8.890265|    0.824006|    0.012010|
|         338|   -6.370967|   -8.898516|    0.824006|    0.012010|
|         339|   -6.374785|   -8.906753|    0.824006|    0.012010|
|         340|   -6.378763|   -8.914920|    0.824006|    0.012010|
|         341|   -6.382538|   -8.922958|    0.824006|    0.012010|
|         342|   -6.385786|   -8.930807|    0.824006|    0.012010|
|         343|   -6.388304|   -8.938406|    0.824007|    0.012010|
|         344|   -6.390059|   -8.945697|    0.824007|    0.012010|
|         345|   -6.391198|   -8.952627|    0.824007|    0.012010|
|         346|   -6.391997|   -8.959145|    0.824007|    0.012010|
|         347|   -6.392788|   -8.965206|    0.824007|    0.012010|
|         348|   -6.393876|   -8.970774|    0.824007|    0.012011|
|         349|   -6.395482|   -8.975818|    0.824007|    0.012011|
|         350|   -6.397716|   -8.980317|    0.824007|    0.012011|
|         351|   -6.400583|   -8.984260|    0.824007|    0.012011|
|         352|   -6.404000|   -8.987636|    0.824007|    0.012011|
|         353|   -6.407842|   -8.990487|    0.824007|    0.012011|
|         354|   -6.411972|   -8.992827|    0.824007|    0.012011|
|         355|   -6.416277|   -8.994697|    0.824007|    0.012011|
|         356|   -6.420687|   -8.996152|    0.824007|    0.012011|
|         357|   -6.425177|   -8.997245|    0.824007|    0.012011|
|         358|   -6.429763|   -8.998051|    0.824006|    0.012011|
|         359|   -6.434492|   -8.998655|    0.824006|    0.012011|
|         360|   -6.439417|   -8.999149|    0.824006|    0.012011|
|         361|   -6.444587|   -8.999624|    0.824006|    0.012011|
|         362|   -6.450037|   -9.000172|    0.824006|    0.012011|
|         363|   -6.455780|   -9.000885|    0.824006|    0.012011|
|         364|   -6.461809|   -9.001849|    0.824006|    0.012011|
|         365|   -6.468102|   -9.003143|    0.824006|    0.012011|
|         366|   -6.474624|   -9.004843|    0.824006|    0.012011|
|         367|   -6.481335|   -9.007006|    0.824005|    0.012011|
|         368|   -6.488190|   -9.009682|    0.824005|    0.012011|
|         369|   -6.495144|   -9.012906|    0.824005|    0.012011|
|         370|   -6.502149|   -9.016694|    0.824005|    0.012011|
|         371|   -6.509155|   -9.021047|    0.824005|    0.012011|
|         372|   -6.516111|   -9.025943|    0.824005|    0.012011|
|         373|   -6.522958|   -9.031337|    0.824004|    0.012011|
|         374|   -6.529637|   -9.037160|    0.824004|    0.012011|
|         375|   -6.536084|   -9.043314|    0.824004|    0.012011|
|         376|   -6.542233|   -9.049674|    0.824004|    0.012011|
|         377|   -6.548021|   -9.056089|    0.824004|    0.012011|
|         378|   -6.553386|   -9.062380|    0.824004|    0.012011|
|         379|   -6.558275|   -9.068346|    0.824003|    0.012011|
|         380|   -6.562642|   -9.073775|    0.824003|    0.012011|
|         381|   -6.566455|   -9.078452|    0.824003|    0.012011|
|         382|   -6.569693|   -9.082172|    0.824003|    0.012011|
|         383|   -6.572348|   -9.084758|    0.824003|    0.012011|
|         384|   -6.574429|   -9.086077|    0.824003|    0.012011|
|         385|   -6.575956|   -9.086050|    0.824003|    0.012011|
|         386|   -6.576963|   -9.084665|    0.824002|    0.012011|
|         387|   -6.577493|   -9.081974|    0.824002|    0.012011|
|         388|   -6.577600|   -9.078090|    0.824002|    0.012011|
|         389|   -6.577342|   -9.073180|    0.824002|    0.012011|
|         390|   -6.576782|   -9.067443|    0.824002|    0.012011|
|         391|   -6.575984|   -9.061102|    0.824002|    0.012011|
|         392|   -6.575011|   -9.054382|    0.824002|    0.012011|
|         393|   -6.573923|   -9.047504|    0.824002|    0.012011|
|         394|   -6.572777|   -9.040671|    0.824002|    0.012011|
|         395|   -6.571624|   -9.034065|    0.824002|    0.012011|
|         396|   -6.570510|   -9.027842|    0.824002|    0.012011|
|         397|   -6.569474|   -9.022133|    0.824002|    0.012011|
|         398|   -6.568549|   -9.017042|    0.824002|    0.012011|
|         399|   -6.567762|   -9.012650|    0.824002|    0.012011|
|         400|   -6.567134|   -9.009015|    0.824002|    0.012011|
|         401|   -6.566681|   -9.006175|    0.824002|    0.012011|
+-----------------------------------------------------------------------+
|Fixed CL Mode                           |Value                         |
+-----------------------------------------------------------------------+
|Current CL                              |0.824002                      |
|Target CL                               |0.824                         |
|Previous AOA                            |2.78033                       |
|Changed AoA by                          |-8.01812e-06                  |
+-----------------------------------------------------------------------+
+----------------------------------------------------------------+
|  Inner_Iter|    rms[Rho]|     rms[nu]|          CL|          CD|
+----------------------------------------------------------------+
|         402|   -5.288867|   -8.968971|    0.824002|    0.012011|
|         403|   -5.670332|   -8.984884|    0.824002|    0.012011|
|         404|   -5.904651|   -8.990012|    0.824002|    0.012011|
|         405|   -5.975986|   -8.993484|    0.824002|    0.012011|
|         406|   -6.024020|   -8.996688|    0.824002|    0.012011|
|         407|   -6.086137|   -8.999952|    0.824002|    0.012011|
|         408|   -6.160832|   -9.003408|    0.824002|    0.012011|
|         409|   -6.235404|   -9.007135|    0.824002|    0.012011|
|         410|   -6.296621|   -9.011164|    0.824002|    0.012011|
|         411|   -6.340172|   -9.015468|    0.824002|    0.012011|
|         412|   -6.369139|   -9.019996|    0.824002|    0.012011|
|         413|   -6.387052|   -9.024705|    0.824002|    0.012011|
|         414|   -6.396645|   -9.029558|    0.824002|    0.012011|
|         415|   -6.401605|   -9.034498|    0.824002|    0.012011|
|         416|   -6.406179|   -9.039437|    0.824002|    0.012011|
|         417|   -6.413370|   -9.044269|    0.824002|    0.012011|
|         418|   -6.423994|   -9.048899|    0.824002|    0.012011|
|         419|   -6.437044|   -9.053252|    0.824002|    0.012010|
|         420|   -6.450792|   -9.057273|    0.824002|    0.012010|
|         421|   -6.463946|   -9.060921|    0.824002|    0.012010|
|         422|   -6.476237|   -9.064172|    0.824002|    0.012010|
|         423|   -6.488174|   -9.066987|    0.824002|    0.012010|
|         424|   -6.500369|   -9.069357|    0.824002|    0.012010|
|         425|   -6.513017|   -9.071292|    0.824002|    0.012010|
|         426|   -6.525791|   -9.072821|    0.824002|    0.012010|
|         427|   -6.538067|   -9.073995|    0.824002|    0.012010|
|         428|   -6.549218|   -9.074877|    0.824002|    0.012010|
|         429|   -6.558823|   -9.075540|    0.824003|    0.012010|
|         430|   -6.566748|   -9.076056|    0.824003|    0.012010|
|         431|   -6.573133|   -9.076538|    0.824003|    0.012010|
|         432|   -6.578351|   -9.077041|    0.824003|    0.012010|
|         433|   -6.582925|   -9.077633|    0.824003|    0.012010|
|         434|   -6.587422|   -9.078369|    0.824003|    0.012010|
|         435|   -6.592336|   -9.079290|    0.824003|    0.012010|
|         436|   -6.597990|   -9.080421|    0.824003|    0.012010|
|         437|   -6.604483|   -9.081776|    0.824003|    0.012010|
|         438|   -6.611691|   -9.083356|    0.824003|    0.012010|
|         439|   -6.619292|   -9.085154|    0.824003|    0.012010|
|         440|   -6.626828|   -9.087152|    0.824003|    0.012010|
|         441|   -6.633787|   -9.089328|    0.824003|    0.012010|
|         442|   -6.639702|   -9.091654|    0.824003|    0.012010|
|         443|   -6.644252|   -9.094096|    0.824003|    0.012010|
|         444|   -6.647332|   -9.096618|    0.824003|    0.012010|
|         445|   -6.649065|   -9.099177|    0.824003|    0.012010|
|         446|   -6.649742|   -9.101730|    0.824003|    0.012010|
|         447|   -6.649736|   -9.104225|    0.824003|    0.012010|
|         448|   -6.649395|   -9.106611|    0.824003|    0.012010|
|         449|   -6.648979|   -9.108832|    0.824003|    0.012010|
|         450|   -6.648621|   -9.110832|    0.824003|    0.012010|
|         451|   -6.648342|   -9.112552|    0.824003|    0.012010|
|         452|   -6.648080|   -9.113931|    0.824003|    0.012010|
|         453|   -6.647733|   -9.114944|    0.824003|    0.012011|
|         454|   -6.647204|   -9.115534|    0.824003|    0.012011|
|         455|   -6.646431|   -9.115669|    0.824003|    0.012011|
|         456|   -6.645401|   -9.115331|    0.824003|    0.012011|
|         457|   -6.644155|   -9.114510|    0.824003|    0.012011|
|         458|   -6.642770|   -9.113225|    0.824003|    0.012011|
|         459|   -6.641343|   -9.111487|    0.824003|    0.012011|
|         460|   -6.639977|   -9.109339|    0.824003|    0.012011|
|         461|   -6.638760|   -9.106832|    0.824003|    0.012011|
|         462|   -6.637764|   -9.104033|    0.824003|    0.012011|
|         463|   -6.637040|   -9.101014|    0.824003|    0.012011|
|         464|   -6.636623|   -9.097855|    0.824003|    0.012011|
|         465|   -6.636535|   -9.094641|    0.824003|    0.012011|
|         466|   -6.636789|   -9.091459|    0.824003|    0.012011|
|         467|   -6.637398|   -9.088395|    0.824002|    0.012011|
|         468|   -6.638371|   -9.085531|    0.824002|    0.012011|
|         469|   -6.639718|   -9.082945|    0.824002|    0.012011|
|         470|   -6.641450|   -9.080708|    0.824002|    0.012011|
|         471|   -6.643577|   -9.078880|    0.824002|    0.012011|
|         472|   -6.646105|   -9.077514|    0.824002|    0.012011|
|         473|   -6.649040|   -9.076648|    0.824002|    0.012011|
|         474|   -6.652382|   -9.076318|    0.824002|    0.012011|
|         475|   -6.656128|   -9.076534|    0.824002|    0.012011|
|         476|   -6.660274|   -9.077302|    0.824002|    0.012011|
|         477|   -6.664808|   -9.078614|    0.824002|    0.012011|
|         478|   -6.669718|   -9.080449|    0.824002|    0.012011|
|         479|   -6.674988|   -9.082772|    0.824002|    0.012011|
|         480|   -6.680597|   -9.085536|    0.824002|    0.012011|
|         481|   -6.686522|   -9.088681|    0.824002|    0.012011|
|         482|   -6.692737|   -9.092139|    0.824001|    0.012011|
|         483|   -6.699211|   -9.095830|    0.824001|    0.012011|
|         484|   -6.705910|   -9.099668|    0.824001|    0.012011|
|         485|   -6.712795|   -9.103562|    0.824001|    0.012011|
|         486|   -6.719824|   -9.107423|    0.824001|    0.012011|
|         487|   -6.726951|   -9.111162|    0.824001|    0.012011|
|         488|   -6.734124|   -9.114698|    0.824001|    0.012011|
|         489|   -6.741289|   -9.117962|    0.824001|    0.012011|
|         490|   -6.748390|   -9.120900|    0.824001|    0.012011|
|         491|   -6.755366|   -9.123476|    0.824001|    0.012011|
|         492|   -6.762155|   -9.125674|    0.824001|    0.012011|
|         493|   -6.768695|   -9.127500|    0.824001|    0.012011|
|         494|   -6.774923|   -9.128979|    0.824001|    0.012011|
|         495|   -6.780779|   -9.130157|    0.824001|    0.012011|
|         496|   -6.786207|   -9.131093|    0.824001|    0.012011|
|         497|   -6.791153|   -9.131860|    0.824001|    0.012011|
|         498|   -6.795573|   -9.132536|    0.824001|    0.012011|
|         499|   -6.799430|   -9.133206|    0.824000|    0.012011|
|         500|   -6.802697|   -9.133952|    0.824000|    0.012011|
|         501|   -6.805357|   -9.134853|    0.824000|    0.012011|
|         502|   -6.807407|   -9.135982|    0.824000|    0.012011|
|         503|   -6.808853|   -9.137402|    0.824000|    0.012011|
|         504|   -6.809714|   -9.139167|    0.824000|    0.012011|
|         505|   -6.810018|   -9.141317|    0.824000|    0.012011|
|         506|   -6.809806|   -9.143884|    0.824000|    0.012011|
|         507|   -6.809122|   -9.146883|    0.824000|    0.012011|
|         508|   -6.808021|   -9.150319|    0.824000|    0.012011|
|         509|   -6.806560|   -9.154184|    0.824000|    0.012011|
|         510|   -6.804799|   -9.158459|    0.824000|    0.012011|
|         511|   -6.802802|   -9.163112|    0.824000|    0.012011|
|         512|   -6.800629|   -9.168104|    0.824000|    0.012011|
|         513|   -6.798342|   -9.173383|    0.824000|    0.012011|
|         514|   -6.795998|   -9.178890|    0.824000|    0.012011|
|         515|   -6.793654|   -9.184561|    0.824000|    0.012011|
|         516|   -6.791361|   -9.190324|    0.824000|    0.012011|
|         517|   -6.789167|   -9.196106|    0.824000|    0.012011|
|         518|   -6.787115|   -9.201832|    0.824000|    0.012011|
|         519|   -6.785246|   -9.207430|    0.824000|    0.012010|
|         520|   -6.783595|   -9.212830|    0.824000|    0.012010|
|         521|   -6.782193|   -9.217969|    0.824000|    0.012010|
|         522|   -6.781069|   -9.222792|    0.824000|    0.012010|
|         523|   -6.780246|   -9.227257|    0.824000|    0.012010|
|         524|   -6.779745|   -9.231331|    0.824000|    0.012010|
|         525|   -6.779584|   -9.234996|    0.824000|    0.012010|
|         526|   -6.779776|   -9.238247|    0.824000|    0.012010|
|         527|   -6.780332|   -9.241091|    0.824000|    0.012010|
|         528|   -6.781262|   -9.243546|    0.824000|    0.012010|
|         529|   -6.782571|   -9.245641|    0.824000|    0.012010|
|         530|   -6.784262|   -9.247414|    0.824000|    0.012010|
|         531|   -6.786335|   -9.248908|    0.824000|    0.012010|
|         532|   -6.788789|   -9.250169|    0.824000|    0.012010|
|         533|   -6.791619|   -9.251246|    0.824000|    0.012010|
|         534|   -6.794817|   -9.252189|    0.824000|    0.012010|
|         535|   -6.798372|   -9.253045|    0.824000|    0.012010|
|         536|   -6.802272|   -9.253859|    0.824000|    0.012010|
|         537|   -6.806501|   -9.254672|    0.824000|    0.012010|
|         538|   -6.811038|   -9.255522|    0.824000|    0.012010|
|         539|   -6.815861|   -9.256441|    0.824000|    0.012010|
|         540|   -6.820943|   -9.257458|    0.824000|    0.012010|
|         541|   -6.826254|   -9.258597|    0.824000|    0.012010|
|         542|   -6.831759|   -9.259876|    0.824000|    0.012010|
|         543|   -6.837421|   -9.261310|    0.824000|    0.012010|
|         544|   -6.843198|   -9.262908|    0.824000|    0.012010|
|         545|   -6.849044|   -9.264676|    0.824000|    0.012010|
|         546|   -6.854910|   -9.266615|    0.824000|    0.012010|
|         547|   -6.860744|   -9.268722|    0.824000|    0.012010|
|         548|   -6.866492|   -9.270987|    0.824000|    0.012010|
|         549|   -6.872099|   -9.273397|    0.824000|    0.012010|
|         550|   -6.877507|   -9.275935|    0.824000|    0.012010|
|         551|   -6.882661|   -9.278576|    0.824000|    0.012010|
|         552|   -6.887507|   -9.281293|    0.824000|    0.012010|
|         553|   -6.891995|   -9.284050|    0.824000|    0.012010|
|         554|   -6.896079|   -9.286807|    0.824000|    0.012011|
|         555|   -6.899720|   -9.289520|    0.824000|    0.012011|
|         556|   -6.902889|   -9.292138|    0.824000|    0.012011|
|         557|   -6.905561|   -9.294608|    0.824000|    0.012011|
|         558|   -6.907725|   -9.296876|    0.824000|    0.012011|
|         559|   -6.909378|   -9.298886|    0.824000|    0.012011|
|         560|   -6.910529|   -9.300585|    0.824000|    0.012011|
|         561|   -6.911195|   -9.301922|    0.824000|    0.012011|
|         562|   -6.911405|   -9.302855|    0.824000|    0.012011|
|         563|   -6.911193|   -9.303346|    0.824000|    0.012011|
|         564|   -6.910602|   -9.303373|    0.824000|    0.012011|
|         565|   -6.909680|   -9.302920|    0.824000|    0.012011|
|         566|   -6.908478|   -9.301990|    0.824000|    0.012011|
|         567|   -6.907052|   -9.300595|    0.824000|    0.012011|
|         568|   -6.905457|   -9.298763|    0.824000|    0.012011|
|         569|   -6.903747|   -9.296534|    0.824000|    0.012011|
|         570|   -6.901978|   -9.293956|    0.824000|    0.012011|
|         571|   -6.900202|   -9.291090|    0.824000|    0.012011|
|         572|   -6.898469|   -9.287998|    0.824000|    0.012011|
|         573|   -6.896824|   -9.284751|    0.824000|    0.012011|
|         574|   -6.895310|   -9.281416|    0.824000|    0.012011|
|         575|   -6.893968|   -9.278063|    0.824000|    0.012011|
|         576|   -6.892832|   -9.274757|    0.824000|    0.012011|
|         577|   -6.891933|   -9.271558|    0.824000|    0.012011|
|         578|   -6.891301|   -9.268520|    0.824000|    0.012011|
|         579|   -6.890958|   -9.265693|    0.824000|    0.012011|
|         580|   -6.890926|   -9.263115|    0.824000|    0.012011|
|         581|   -6.891223|   -9.260818|    0.824000|    0.012011|
|         582|   -6.891863|   -9.258828|    0.824000|    0.012011|
|         583|   -6.892856|   -9.257161|    0.824000|    0.012011|
|         584|   -6.894212|   -9.255824|    0.824000|    0.012011|
|         585|   -6.895936|   -9.254821|    0.824000|    0.012011|
|         586|   -6.898031|   -9.254144|    0.824000|    0.012011|
|         587|   -6.900496|   -9.253783|    0.824000|    0.012011|
|         588|   -6.903330|   -9.253722|    0.824000|    0.012011|
|         589|   -6.906525|   -9.253939|    0.824000|    0.012011|
|         590|   -6.910073|   -9.254409|    0.823999|    0.012011|
|         591|   -6.913964|   -9.255104|    0.823999|    0.012011|
|         592|   -6.918181|   -9.255994|    0.823999|    0.012011|
|         593|   -6.922707|   -9.257049|    0.823999|    0.012011|
|         594|   -6.927520|   -9.258235|    0.823999|    0.012011|
|         595|   -6.932594|   -9.259522|    0.823999|    0.012011|
|         596|   -6.937900|   -9.260882|    0.823999|    0.012011|
|         597|   -6.943406|   -9.262287|    0.823999|    0.012011|
|         598|   -6.949072|   -9.263713|    0.823999|    0.012011|
|         599|   -6.954859|   -9.265139|    0.823999|    0.012011|
|         600|   -6.960719|   -9.266549|    0.823999|    0.012011|
|         601|   -6.966603|   -9.267932|    0.823999|    0.012011|
+-----------------------------------------------------------------------+
|Fixed CL Mode                           |Value                         |
+-----------------------------------------------------------------------+
|Current CL                              |0.823999                      |
|Target CL                               |0.824                         |
|Previous AOA                            |2.78032                       |
|Changed AoA by                          |4.30021e-06                   |
+-----------------------------------------------------------------------+
+----------------------------------------------------------------+
|  Inner_Iter|    rms[Rho]|     rms[nu]|          CL|          CD|
+----------------------------------------------------------------+
|         602|   -5.559341|   -9.234836|    0.823999|    0.012011|
|         603|   -5.940749|   -9.252361|    0.823999|    0.012011|
|         604|   -6.177975|   -9.258579|    0.823999|    0.012011|
|         605|   -6.254284|   -9.262503|    0.823999|    0.012011|
|         606|   -6.307110|   -9.265593|    0.823999|    0.012011|
|         607|   -6.374832|   -9.268233|    0.823999|    0.012011|
|         608|   -6.456975|   -9.270578|    0.823999|    0.012011|
|         609|   -6.540676|   -9.272724|    0.823999|    0.012011|
|         610|   -6.610672|   -9.274730|    0.823999|    0.012011|
|         611|   -6.660457|   -9.276615|    0.823999|    0.012011|
|         612|   -6.692603|   -9.278390|    0.823999|    0.012011|
|         613|   -6.711114|   -9.280090|    0.823999|    0.012011|
|         614|   -6.719533|   -9.281767|    0.823999|    0.012011|
|         615|   -6.722735|   -9.283455|    0.823999|    0.012011|
|         616|   -6.726099|   -9.285164|    0.823999|    0.012011|
|         617|   -6.733202|   -9.286895|    0.823999|    0.012011|
|         618|   -6.744791|   -9.288643|    0.823999|    0.012011|
|         619|   -6.759300|   -9.290418|    0.823999|    0.012011|
|         620|   -6.774201|   -9.292235|    0.823999|    0.012011|
|         621|   -6.787507|   -9.294108|    0.823999|    0.012011|
|         622|   -6.798648|   -9.296040|    0.823999|    0.012011|
|         623|   -6.808252|   -9.298028|    0.823999|    0.012011|
|         624|   -6.817255|   -9.300059|    0.823999|    0.012011|
|         625|   -6.826178|   -9.302121|    0.823999|    0.012011|
|         626|   -6.834969|   -9.304205|    0.823999|    0.012011|
|         627|   -6.843227|   -9.306307|    0.823999|    0.012011|
|         628|   -6.850514|   -9.308425|    0.823999|    0.012011|
|         629|   -6.856533|   -9.310546|    0.823999|    0.012011|
|         630|   -6.861180|   -9.312669|    0.823999|    0.012011|
|         631|   -6.864539|   -9.314797|    0.823999|    0.012011|
|         632|   -6.866872|   -9.316930|    0.823999|    0.012011|
|         633|   -6.868589|   -9.319070|    0.823999|    0.012011|
|         634|   -6.870183|   -9.321216|    0.823999|    0.012011|
|         635|   -6.872132|   -9.323372|    0.823999|    0.012011|
|         636|   -6.874803|   -9.325541|    0.823999|    0.012011|
|         637|   -6.878398|   -9.327727|    0.823999|    0.012011|
|         638|   -6.882941|   -9.329939|    0.823999|    0.012011|
|         639|   -6.888294|   -9.332185|    0.823999|    0.012011|
|         640|   -6.894195|   -9.334480|    0.823999|    0.012011|
|         641|   -6.900316|   -9.336839|    0.823999|    0.012011|
|         642|   -6.906338|   -9.339281|    0.823999|    0.012011|
|         643|   -6.912024|   -9.341827|    0.823999|    0.012011|
|         644|   -6.917280|   -9.344500|    0.823999|    0.012011|
|         645|   -6.922174|   -9.347322|    0.823999|    0.012011|
|         646|   -6.926912|   -9.350317|    0.823999|    0.012011|
|         647|   -6.931770|   -9.353506|    0.823999|    0.012011|
|         648|   -6.937023|   -9.356911|    0.823999|    0.012011|
|         649|   -6.942878|   -9.360550|    0.823999|    0.012011|
|         650|   -6.949440|   -9.364433|    0.823999|    0.012011|
|         651|   -6.956701|   -9.368596|    0.823999|    0.012011|
|         652|   -6.964556|   -9.373025|    0.823999|    0.012011|
|         653|   -6.972839|   -9.377739|    0.823999|    0.012011|
|         654|   -6.981356|   -9.382750|    0.823999|    0.012011|
|         655|   -6.989928|   -9.388067|    0.823999|    0.012011|
|         656|   -6.998414|   -9.393695|    0.823999|    0.012011|
|         657|   -7.006728|   -9.399637|    0.823999|    0.012011|
|         658|   -7.014832|   -9.405889|    0.823999|    0.012011|
|         659|   -7.022730|   -9.412458|    0.823999|    0.012011|
|         660|   -7.030443|   -9.419351|    0.823999|    0.012011|
|         661|   -7.037993|   -9.426547|    0.823999|    0.012011|
|         662|   -7.045387|   -9.434033|    0.823999|    0.012011|
|         663|   -7.052612|   -9.441791|    0.823999|    0.012011|
|         664|   -7.059634|   -9.449798|    0.823999|    0.012011|
|         665|   -7.066400|   -9.458025|    0.823999|    0.012011|
|         666|   -7.072854|   -9.466430|    0.823999|    0.012011|
|         667|   -7.078939|   -9.474968|    0.824000|    0.012011|
|         668|   -7.084603|   -9.483578|    0.824000|    0.012011|
|         669|   -7.089809|   -9.492183|    0.824000|    0.012011|
|         670|   -7.094531|   -9.500725|    0.824000|    0.012011|
|         671|   -7.098755|   -9.509105|    0.824000|    0.012011|
|         672|   -7.102478|   -9.517228|    0.824000|    0.012011|
|         673|   -7.105705|   -9.524996|    0.824000|    0.012011|
|         674|   -7.108451|   -9.532305|    0.824000|    0.012011|
|         675|   -7.110734|   -9.539054|    0.824000|    0.012011|
|         676|   -7.112583|   -9.545150|    0.824000|    0.012011|
|         677|   -7.114031|   -9.550513|    0.824000|    0.012011|
|         678|   -7.115119|   -9.555081|    0.824000|    0.012011|
|         679|   -7.115894|   -9.558818|    0.824000|    0.012011|
|         680|   -7.116406|   -9.561712|    0.824000|    0.012011|
|         681|   -7.116713|   -9.563782|    0.824000|    0.012011|
|         682|   -7.116872|   -9.565074|    0.824000|    0.012011|
|         683|   -7.116941|   -9.565663|    0.824000|    0.012011|
|         684|   -7.116980|   -9.565642|    0.824000|    0.012011|
|         685|   -7.117045|   -9.565125|    0.824000|    0.012011|
|         686|   -7.117192|   -9.564237|    0.824000|    0.012011|
|         687|   -7.117470|   -9.563110|    0.824000|    0.012011|
|         688|   -7.117928|   -9.561877|    0.824000|    0.012011|
|         689|   -7.118607|   -9.560668|    0.824000|    0.012011|
|         690|   -7.119548|   -9.559604|    0.824000|    0.012011|
|         691|   -7.120782|   -9.558798|    0.824000|    0.012011|
|         692|   -7.122339|   -9.558348|    0.824000|    0.012011|
|         693|   -7.124244|   -9.558339|    0.824000|    0.012011|
|         694|   -7.126514|   -9.558844|    0.824000|    0.012011|
|         695|   -7.129163|   -9.559917|    0.824000|    0.012011|
|         696|   -7.132203|   -9.561601|    0.824000|    0.012011|
|         697|   -7.135635|   -9.563922|    0.824000|    0.012011|
|         698|   -7.139462|   -9.566893|    0.824000|    0.012011|
|         699|   -7.143677|   -9.570510|    0.824000|    0.012011|
|         700|   -7.148272|   -9.574757|    0.824000|    0.012011|
|         701|   -7.153232|   -9.579602|    0.823999|    0.012011|
|         702|   -7.158539|   -9.585000|    0.823999|    0.012011|
|         703|   -7.164169|   -9.590888|    0.823999|    0.012011|
|         704|   -7.170094|   -9.597189|    0.823999|    0.012011|
|         705|   -7.176281|   -9.603813|    0.823999|    0.012011|
|         706|   -7.182692|   -9.610655|    0.823999|    0.012011|
|         707|   -7.189286|   -9.617599|    0.823999|    0.012011|
|         708|   -7.196014|   -9.624519|    0.823999|    0.012011|
|         709|   -7.202826|   -9.631282|    0.823999|    0.012011|
|         710|   -7.209666|   -9.637753|    0.823999|    0.012011|
|         711|   -7.216477|   -9.643797|    0.823999|    0.012011|
|         712|   -7.223198|   -9.649289|    0.823999|    0.012011|
|         713|   -7.229766|   -9.654117|    0.823999|    0.012011|
|         714|   -7.236120|   -9.658188|    0.823999|    0.012011|
|         715|   -7.242199|   -9.661436|    0.823999|    0.012011|
|         716|   -7.247946|   -9.663821|    0.823999|    0.012011|
|         717|   -7.253307|   -9.665337|    0.823999|    0.012011|
|         718|   -7.258237|   -9.666004|    0.823999|    0.012011|
|         719|   -7.262696|   -9.665873|    0.823999|    0.012011|
|         720|   -7.266657|   -9.665018|    0.823999|    0.012011|
|         721|   -7.270099|   -9.663533|    0.823999|    0.012011|
|         722|   -7.273017|   -9.661521|    0.823999|    0.012011|
|         723|   -7.275414|   -9.659096|    0.823999|    0.012011|
|         724|   -7.277304|   -9.656372|    0.823999|    0.012011|
|         725|   -7.278714|   -9.653460|    0.823999|    0.012011|
|         726|   -7.279679|   -9.650465|    0.823999|    0.012011|
|         727|   -7.280240|   -9.647483|    0.823999|    0.012011|
|         728|   -7.280447|   -9.644599|    0.823999|    0.012011|
|         729|   -7.280353|   -9.641887|    0.823999|    0.012011|
|         730|   -7.280016|   -9.639412|    0.823999|    0.012011|
|         731|   -7.279494|   -9.637223|    0.823998|    0.012011|
|         732|   -7.278844|   -9.635361|    0.823998|    0.012011|
|         733|   -7.278125|   -9.633858|    0.823998|    0.012011|
|         734|   -7.277390|   -9.632734|    0.823998|    0.012011|
|         735|   -7.276692|   -9.632003|    0.823998|    0.012011|
|         736|   -7.276079|   -9.631669|    0.823998|    0.012011|
|         737|   -7.275594|   -9.631732|    0.823998|    0.012011|
|         738|   -7.275278|   -9.632184|    0.823998|    0.012011|
|         739|   -7.275166|   -9.633014|    0.823998|    0.012011|
|         740|   -7.275288|   -9.634206|    0.823998|    0.012011|
|         741|   -7.275670|   -9.635741|    0.823998|    0.012011|
|         742|   -7.276335|   -9.637597|    0.823999|    0.012011|
|         743|   -7.277297|   -9.639752|    0.823999|    0.012011|
|         744|   -7.278572|   -9.642181|    0.823999|    0.012011|
|         745|   -7.280166|   -9.644862|    0.823999|    0.012011|
|         746|   -7.282084|   -9.647770|    0.823999|    0.012011|
|         747|   -7.284328|   -9.650884|    0.823999|    0.012011|
|         748|   -7.286892|   -9.654183|    0.823999|    0.012011|
|         749|   -7.289770|   -9.657651|    0.823999|    0.012011|
|         750|   -7.292951|   -9.661271|    0.823999|    0.012011|
|         751|   -7.296419|   -9.665030|    0.823999|    0.012011|
|         752|   -7.300156|   -9.668918|    0.823999|    0.012011|
|         753|   -7.304140|   -9.672928|    0.823999|    0.012011|
|         754|   -7.308344|   -9.677052|    0.823999|    0.012011|
|         755|   -7.312740|   -9.681288|    0.823999|    0.012011|
|         756|   -7.317296|   -9.685632|    0.823999|    0.012011|
|         757|   -7.321974|   -9.690081|    0.823999|    0.012011|
|         758|   -7.326737|   -9.694634|    0.823999|    0.012011|
|         759|   -7.331543|   -9.699287|    0.823999|    0.012011|
|         760|   -7.336350|   -9.704038|    0.823999|    0.012011|
|         761|   -7.341113|   -9.708881|    0.823999|    0.012011|
|         762|   -7.345787|   -9.713809|    0.823999|    0.012011|
|         763|   -7.350327|   -9.718815|    0.823999|    0.012011|
|         764|   -7.354688|   -9.723888|    0.823999|    0.012011|
|         765|   -7.358829|   -9.729016|    0.823999|    0.012011|
|         766|   -7.362709|   -9.734185|    0.823999|    0.012011|
|         767|   -7.366294|   -9.739382|    0.823999|    0.012011|
|         768|   -7.369554|   -9.744591|    0.823999|    0.012011|
|         769|   -7.372462|   -9.749795|    0.823999|    0.012011|
|         770|   -7.375003|   -9.754980|    0.823999|    0.012011|
|         771|   -7.377164|   -9.760129|    0.823999|    0.012011|
|         772|   -7.378941|   -9.765228|    0.823999|    0.012011|
|         773|   -7.380339|   -9.770263|    0.823999|    0.012011|
|         774|   -7.381369|   -9.775219|    0.823999|    0.012011|
|         775|   -7.382048|   -9.780085|    0.823999|    0.012011|
|         776|   -7.382399|   -9.784846|    0.823999|    0.012011|
|         777|   -7.382453|   -9.789491|    0.823999|    0.012011|
|         778|   -7.382243|   -9.794004|    0.823999|    0.012011|
|         779|   -7.381806|   -9.798372|    0.823999|    0.012011|
|         780|   -7.381181|   -9.802577|    0.823999|    0.012011|
|         781|   -7.380409|   -9.806601|    0.823999|    0.012011|
|         782|   -7.379532|   -9.810421|    0.823999|    0.012011|
|         783|   -7.378591|   -9.814016|    0.823999|    0.012011|
|         784|   -7.377625|   -9.817361|    0.823999|    0.012011|
|         785|   -7.376673|   -9.820431|    0.823999|    0.012011|
|         786|   -7.375772|   -9.823201|    0.823999|    0.012011|
|         787|   -7.374955|   -9.825650|    0.823999|    0.012011|
|         788|   -7.374254|   -9.827759|    0.823999|    0.012011|
|         789|   -7.373695|   -9.829517|    0.823999|    0.012011|
|         790|   -7.373304|   -9.830918|    0.823999|    0.012011|
|         791|   -7.373103|   -9.831966|    0.823999|    0.012011|
|         792|   -7.373109|   -9.832676|    0.823999|    0.012011|
|         793|   -7.373336|   -9.833073|    0.823999|    0.012011|
|         794|   -7.373797|   -9.833191|    0.823999|    0.012011|
|         795|   -7.374498|   -9.833077|    0.823999|    0.012011|
|         796|   -7.375445|   -9.832784|    0.823999|    0.012011|
|         797|   -7.376639|   -9.832374|    0.823999|    0.012011|
|         798|   -7.378076|   -9.831911|    0.823999|    0.012011|
|         799|   -7.379753|   -9.831466|    0.823999|    0.012011|
|         800|   -7.381658|   -9.831107|    0.823999|    0.012011|
|         801|   -7.383780|   -9.830901|    0.823999|    0.012011|
+-----------------------------------------------------------------------+
|Fixed CL Mode                           |Value                         |
+-----------------------------------------------------------------------+
|Current CL                              |0.823999                      |
|Target CL                               |0.824                         |
|Previous AOA                            |2.78032                       |
|Changed AoA by                          |4.67087e-06                   |
+-----------------------------------------------------------------------+
+----------------------------------------------------------------+
|  Inner_Iter|    rms[Rho]|     rms[nu]|          CL|          CD|
+----------------------------------------------------------------+
|         802|   -5.523890|   -9.551077|    0.823999|    0.012011|
|         803|   -5.907597|   -9.649910|    0.823999|    0.012011|
|         804|   -6.149617|   -9.689848|    0.823999|    0.012011|
|         805|   -6.227557|   -9.714915|    0.823999|    0.012011|
|         806|   -6.281089|   -9.734450|    0.823999|    0.012011|
|         807|   -6.350680|   -9.750855|    0.823999|    0.012011|
|         808|   -6.436765|   -9.764969|    0.823999|    0.012011|
|         809|   -6.526882|   -9.777348|    0.823999|    0.012011|
|         810|   -6.604913|   -9.788366|    0.823999|    0.012011|
|         811|   -6.662543|   -9.798017|    0.823999|    0.012011|
|         812|   -6.701059|   -9.806260|    0.823999|    0.012011|
|         813|   -6.723898|   -9.813441|    0.823999|    0.012011|
|         814|   -6.734617|   -9.820148|    0.823999|    0.012011|
|         815|   -6.738973|   -9.826810|    0.823999|    0.012011|
|         816|   -6.743659|   -9.833495|    0.823999|    0.012011|
|         817|   -6.753251|   -9.840145|    0.823999|    0.012011|
|         818|   -6.768894|   -9.846564|    0.823999|    0.012011|
|         819|   -6.788861|   -9.852818|    0.823999|    0.012011|
|         820|   -6.810061|   -9.859102|    0.823999|    0.012011|
|         821|   -6.829872|   -9.865505|    0.823999|    0.012011|
|         822|   -6.847426|   -9.872010|    0.823999|    0.012011|
|         823|   -6.863528|   -9.878512|    0.823999|    0.012011|
|         824|   -6.879510|   -9.884697|    0.823999|    0.012011|
|         825|   -6.896155|   -9.890265|    0.823999|    0.012011|
|         826|   -6.913345|   -9.894979|    0.823999|    0.012011|
|         827|   -6.930312|   -9.898672|    0.823999|    0.012011|
|         828|   -6.946084|   -9.901291|    0.823999|    0.012011|
|         829|   -6.959829|   -9.902795|    0.823999|    0.012011|
|         830|   -6.971028|   -9.903079|    0.823999|    0.012011|
|         831|   -6.979568|   -9.902246|    0.823999|    0.012011|
|         832|   -6.985782|   -9.900433|    0.823999|    0.012011|
|         833|   -6.990410|   -9.897727|    0.823999|    0.012011|
|         834|   -6.994438|   -9.894186|    0.823999|    0.012011|
|         835|   -6.998865|   -9.889855|    0.823999|    0.012011|
|         836|   -7.004477|   -9.884773|    0.823999|    0.012011|
|         837|   -7.011729|   -9.878971|    0.823999|    0.012011|
|         838|   -7.020693|   -9.872482|    0.823999|    0.012011|
|         839|   -7.031080|   -9.865352|    0.823999|    0.012011|
|         840|   -7.042290|   -9.857643|    0.823999|    0.012011|
|         841|   -7.053513|   -9.849434|    0.823999|    0.012011|
|         842|   -7.063896|   -9.840814|    0.823999|    0.012011|
|         843|   -7.072751|   -9.831885|    0.823999|    0.012011|
|         844|   -7.079758|   -9.822751|    0.823999|    0.012011|
|         845|   -7.085057|   -9.813517|    0.823999|    0.012011|
|         846|   -7.089188|   -9.804282|    0.823999|    0.012011|
|         847|   -7.092905|   -9.795128|    0.823999|    0.012011|
|         848|   -7.096957|   -9.786124|    0.823999|    0.012011|
|         849|   -7.101918|   -9.777328|    0.823999|    0.012011|
|         850|   -7.108102|   -9.768796|    0.823999|    0.012011|
|         851|   -7.115550|   -9.760538|    0.823999|    0.012011|
|         852|   -7.124076|   -9.752747|    0.823999|    0.012011|
|         853|   -7.133345|   -9.745250|    0.823999|    0.012011|
|         854|   -7.142961|   -9.738163|    0.823999|    0.012011|
|         855|   -7.152561|   -9.731560|    0.823999|    0.012011|
|         856|   -7.161880|   -9.725503|    0.823999|    0.012011|
|         857|   -7.170792|   -9.720051|    0.823999|    0.012011|
|         858|   -7.179308|   -9.715263|    0.823999|    0.012011|
|         859|   -7.187544|   -9.711145|    0.823999|    0.012011|
|         860|   -7.195668|   -9.707866|    0.823999|    0.012011|
|         861|   -7.203852|   -9.705438|    0.823999|    0.012011|
|         862|   -7.212235|   -9.703917|    0.823999|    0.012011|
|         863|   -7.220900|   -9.703364|    0.823999|    0.012011|
|         864|   -7.229872|   -9.703834|    0.823999|    0.012011|
|         865|   -7.239130|   -9.705377|    0.823999|    0.012011|
|         866|   -7.248624|   -9.708039|    0.823999|    0.012011|
|         867|   -7.258286|   -9.711852|    0.823999|    0.012011|
|         868|   -7.268048|   -9.716820|    0.823999|    0.012011|
|         869|   -7.277847|   -9.723019|    0.823999|    0.012011|
|         870|   -7.287627|   -9.730391|    0.823999|    0.012011|
|         871|   -7.297333|   -9.738882|    0.823999|    0.012011|
|         872|   -7.306914|   -9.748427|    0.823999|    0.012011|
|         873|   -7.316310|   -9.758910|    0.823999|    0.012011|
|         874|   -7.325454|   -9.770163|    0.823999|    0.012011|
|         875|   -7.334269|   -9.781961|    0.823999|    0.012011|
|         876|   -7.342674|   -9.794006|    0.824000|    0.012011|
|         877|   -7.350584|   -9.805932|    0.824000|    0.012011|
|         878|   -7.357920|   -9.817306|    0.824000|    0.012011|
|         879|   -7.364610|   -9.827647|    0.824000|    0.012011|
|         880|   -7.370597|   -9.836454|    0.824000|    0.012011|
|         881|   -7.375842|   -9.843258|    0.824000|    0.012011|
|         882|   -7.380326|   -9.847676|    0.824000|    0.012011|
|         883|   -7.384051|   -9.849466|    0.824000|    0.012011|
|         884|   -7.387041|   -9.848571|    0.824000|    0.012011|
|         885|   -7.389336|   -9.845124|    0.824000|    0.012011|
|         886|   -7.390995|   -9.839432|    0.824000|    0.012011|
|         887|   -7.392089|   -9.831929|    0.824000|    0.012011|
|         888|   -7.392699|   -9.823115|    0.824000|    0.012011|
|         889|   -7.392912|   -9.813507|    0.824000|    0.012011|
|         890|   -7.392819|   -9.803591|    0.824000|    0.012011|
|         891|   -7.392507|   -9.793799|    0.824000|    0.012011|
|         892|   -7.392061|   -9.784494|    0.824000|    0.012011|
|         893|   -7.391561|   -9.775971|    0.824000|    0.012011|
|         894|   -7.391077|   -9.768460|    0.824000|    0.012011|
|         895|   -7.390672|   -9.762130|    0.824000|    0.012011|
|         896|   -7.390399|   -9.757107|    0.824000|    0.012011|
|         897|   -7.390303|   -9.753470|    0.824000|    0.012011|
|         898|   -7.390420|   -9.751269|    0.824000|    0.012011|
|         899|   -7.390777|   -9.750521|    0.824000|    0.012011|
|         900|   -7.391393|   -9.751222|    0.824000|    0.012011|
|         901|   -7.392282|   -9.753342|    0.824000|    0.012011|
|         902|   -7.393451|   -9.756832|    0.824000|    0.012011|
|         903|   -7.394902|   -9.761620|    0.824000|    0.012011|
|         904|   -7.396634|   -9.767613|    0.824000|    0.012011|
|         905|   -7.398641|   -9.774694|    0.824000|    0.012011|
|         906|   -7.400914|   -9.782721|    0.824000|    0.012011|
|         907|   -7.403443|   -9.791525|    0.824000|    0.012011|
|         908|   -7.406216|   -9.800909|    0.824000|    0.012011|
|         909|   -7.409221|   -9.810646|    0.824000|    0.012011|
|         910|   -7.412442|   -9.820486|    0.824000|    0.012011|
|         911|   -7.415866|   -9.830155|    0.823999|    0.012011|
|         912|   -7.419480|   -9.839371|    0.823999|    0.012011|
|         913|   -7.423268|   -9.847849|    0.823999|    0.012011|
|         914|   -7.427218|   -9.855327|    0.823999|    0.012011|
|         915|   -7.431316|   -9.861575|    0.823999|    0.012011|
|         916|   -7.435549|   -9.866421|    0.823999|    0.012011|
|         917|   -7.439904|   -9.869762|    0.823999|    0.012011|
|         918|   -7.444369|   -9.871573|    0.823999|    0.012011|
|         919|   -7.448931|   -9.871907|    0.823999|    0.012011|
|         920|   -7.453576|   -9.870888|    0.823999|    0.012011|
|         921|   -7.458289|   -9.868695|    0.823999|    0.012011|
|         922|   -7.463054|   -9.865544|    0.823999|    0.012011|
|         923|   -7.467853|   -9.861669|    0.823999|    0.012011|
|         924|   -7.472667|   -9.857307|    0.823999|    0.012011|
|         925|   -7.477473|   -9.852681|    0.823999|    0.012011|
|         926|   -7.482246|   -9.847996|    0.823999|    0.012011|
|         927|   -7.486961|   -9.843427|    0.823999|    0.012011|
|         928|   -7.491587|   -9.839124|    0.823999|    0.012011|
|         929|   -7.496093|   -9.835207|    0.823999|    0.012011|
|         930|   -7.500447|   -9.831767|    0.823999|    0.012011|
|         931|   -7.504616|   -9.828872|    0.823999|    0.012011|
[...]
|        5298|   -6.044429|   -7.943580|    0.824238|    0.012015|
|        5299|   -6.051294|   -7.947275|    0.824238|    0.012015|
|        5300|   -6.057738|   -7.951007|    0.824238|    0.012015|
|        5301|   -6.063721|   -7.954790|    0.824238|    0.012015|
|        5302|   -6.069216|   -7.958633|    0.824238|    0.012015|
|        5303|   -6.074210|   -7.962545|    0.824238|    0.012015|
|        5304|   -6.078700|   -7.966531|    0.824238|    0.012014|
|        5305|   -6.082698|   -7.970597|    0.824238|    0.012014|
|        5306|   -6.086228|   -7.974743|    0.824238|    0.012014|
|        5307|   -6.089325|   -7.978970|    0.824239|    0.012014|
|        5308|   -6.092031|   -7.983281|    0.824239|    0.012014|
|        5309|   -6.094399|   -7.987680|    0.824239|    0.012014|
|        5310|   -6.096484|   -7.992167|    0.824239|    0.012014|
|        5311|   -6.098347|   -7.996741|    0.824239|    0.012014|
|        5312|   -6.100047|   -8.001403|    0.824239|    0.012014|
|        5313|   -6.101647|   -8.006154|    0.824239|    0.012014|
|        5314|   -6.103203|   -8.010995|    0.824239|    0.012014|
|        5315|   -6.104771|   -8.015928|    0.824239|    0.012014|
|        5316|   -6.106401|   -8.020957|    0.824240|    0.012014|
|        5317|   -6.108138|   -8.026084|    0.824240|    0.012014|
|        5318|   -6.110020|   -8.031311|    0.824240|    0.012015|
|        5319|   -6.112080|   -8.036643|    0.824240|    0.012015|
|        5320|   -6.114343|   -8.042081|    0.824240|    0.012015|
|        5321|   -6.116829|   -8.047630|    0.824240|    0.012015|
|        5322|   -6.119549|   -8.053291|    0.824240|    0.012015|
|        5323|   -6.122508|   -8.059064|    0.824241|    0.012015|
|        5324|   -6.125704|   -8.064950|    0.824241|    0.012015|
|        5325|   -6.129128|   -8.070947|    0.824241|    0.012015|
|        5326|   -6.132765|   -8.077052|    0.824241|    0.012015|
|        5327|   -6.136594|   -8.083260|    0.824241|    0.012015|
|        5328|   -6.140588|   -8.089566|    0.824241|    0.012015|
|        5329|   -6.144714|   -8.095962|    0.824241|    0.012015|
|        5330|   -6.148936|   -8.102441|    0.824242|    0.012015|
|        5331|   -6.153215|   -8.108992|    0.824242|    0.012016|
|        5332|   -6.157508|   -8.115604|    0.824242|    0.012016|
|        5333|   -6.161772|   -8.122267|    0.824242|    0.012016|
|        5334|   -6.165962|   -8.128969|    0.824242|    0.012016|
|        5335|   -6.170035|   -8.135698|    0.824242|    0.012016|
|        5336|   -6.173953|   -8.142442|    0.824243|    0.012016|
|        5337|   -6.177679|   -8.149191|    0.824243|    0.012016|
|        5338|   -6.181182|   -8.155934|    0.824243|    0.012016|
|        5339|   -6.184440|   -8.162663|    0.824243|    0.012016|
|        5340|   -6.187437|   -8.169369|    0.824243|    0.012016|
|        5341|   -6.190166|   -8.176052|    0.824243|    0.012016|
|        5342|   -6.192626|   -8.182704|    0.824243|    0.012016|
|        5343|   -6.194829|   -8.189327|    0.824243|    0.012017|
|        5344|   -6.196791|   -8.195915|    0.824244|    0.012017|
|        5345|   -6.198537|   -8.202464|    0.824244|    0.012017|
|        5346|   -6.200099|   -8.208970|    0.824244|    0.012017|
|        5347|   -6.201514|   -8.215432|    0.824244|    0.012017|
|        5348|   -6.202824|   -8.221851|    0.824244|    0.012017|
|        5349|   -6.204071|   -8.228230|    0.824244|    0.012017|
|        5350|   -6.205302|   -8.234573|    0.824244|    0.012017|
|        5351|   -6.206559|   -8.240884|    0.824244|    0.012017|
|        5352|   -6.207889|   -8.247168|    0.824244|    0.012017|
|        5353|   -6.209332|   -8.253432|    0.824244|    0.012017|
|        5354|   -6.210927|   -8.259678|    0.824244|    0.012017|
|        5355|   -6.212712|   -8.265911|    0.824244|    0.012017|
|        5356|   -6.214717|   -8.272132|    0.824244|    0.012017|
|        5357|   -6.216970|   -8.278343|    0.824244|    0.012017|
|        5358|   -6.219495|   -8.284542|    0.824244|    0.012017|
|        5359|   -6.222309|   -8.290729|    0.824245|    0.012017|
|        5360|   -6.225427|   -8.296900|    0.824245|    0.012017|
|        5361|   -6.228856|   -8.303050|    0.824245|    0.012017|
|        5362|   -6.232601|   -8.309176|    0.824245|    0.012017|
|        5363|   -6.236658|   -8.315271|    0.824245|    0.012017|
|        5364|   -6.241023|   -8.321329|    0.824245|    0.012017|
|        5365|   -6.245682|   -8.327345|    0.824245|    0.012017|
|        5366|   -6.250619|   -8.333313|    0.824245|    0.012017|
|        5367|   -6.255813|   -8.339226|    0.824245|    0.012017|
|        5368|   -6.261236|   -8.345081|    0.824244|    0.012017|
|        5369|   -6.266858|   -8.350871|    0.824244|    0.012017|
|        5370|   -6.272642|   -8.356595|    0.824244|    0.012017|
|        5371|   -6.278550|   -8.362248|    0.824244|    0.012017|
|        5372|   -6.284536|   -8.367831|    0.824244|    0.012017|
|        5373|   -6.290556|   -8.373342|    0.824244|    0.012017|
|        5374|   -6.296560|   -8.378784|    0.824244|    0.012017|
|        5375|   -6.302498|   -8.384158|    0.824244|    0.012017|
|        5376|   -6.308320|   -8.389470|    0.824244|    0.012017|
|        5377|   -6.313975|   -8.394725|    0.824244|    0.012017|
|        5378|   -6.319417|   -8.399931|    0.824244|    0.012017|
|        5379|   -6.324601|   -8.405094|    0.824244|    0.012016|
|        5380|   -6.329487|   -8.410225|    0.824244|    0.012016|
|        5381|   -6.334040|   -8.415334|    0.824244|    0.012016|
|        5382|   -6.338233|   -8.420432|    0.824244|    0.012016|
|        5383|   -6.342046|   -8.425529|    0.824244|    0.012016|
|        5384|   -6.345464|   -8.430636|    0.824244|    0.012016|
|        5385|   -6.348482|   -8.435765|    0.824244|    0.012016|
|        5386|   -6.351103|   -8.440925|    0.824244|    0.012016|
|        5387|   -6.353335|   -8.446125|    0.824244|    0.012016|
|        5388|   -6.355194|   -8.451374|    0.824244|    0.012016|
|        5389|   -6.356700|   -8.456678|    0.824244|    0.012016|
|        5390|   -6.357877|   -8.462039|    0.824245|    0.012015|
|        5391|   -6.358753|   -8.467460|    0.824245|    0.012015|
|        5392|   -6.359356|   -8.472938|    0.824245|    0.012015|
|        5393|   -6.359716|   -8.478469|    0.824245|    0.012015|
|        5394|   -6.359862|   -8.484046|    0.824245|    0.012015|
|        5395|   -6.359823|   -8.489659|    0.824245|    0.012015|
|        5396|   -6.359623|   -8.495295|    0.824245|    0.012015|
|        5397|   -6.359288|   -8.500938|    0.824245|    0.012015|
|        5398|   -6.358837|   -8.506569|    0.824245|    0.012015|
|        5399|   -6.358291|   -8.512170|    0.824245|    0.012015|
|        5400|   -6.357664|   -8.517717|    0.824246|    0.012014|
|        5401|   -6.356970|   -8.523188|    0.824246|    0.012014|
|        5402|   -6.356219|   -8.528561|    0.824246|    0.012014|
|        5403|   -6.355421|   -8.533812|    0.824246|    0.012014|
|        5404|   -6.354582|   -8.538919|    0.824246|    0.012014|
|        5405|   -6.353708|   -8.543860|    0.824246|    0.012014|
|        5406|   -6.352800|   -8.548618|    0.824247|    0.012014|
|        5407|   -6.351863|   -8.553177|    0.824247|    0.012014|
|        5408|   -6.350899|   -8.557525|    0.824247|    0.012014|
|        5409|   -6.349909|   -8.561652|    0.824247|    0.012014|
|        5410|   -6.348896|   -8.565552|    0.824247|    0.012014|
|        5411|   -6.347861|   -8.569224|    0.824247|    0.012013|
|        5412|   -6.346806|   -8.572668|    0.824248|    0.012013|
|        5413|   -6.345736|   -8.575887|    0.824248|    0.012013|
|        5414|   -6.344651|   -8.578887|    0.824248|    0.012013|
|        5415|   -6.343557|   -8.581677|    0.824248|    0.012013|
|        5416|   -6.342458|   -8.584265|    0.824248|    0.012013|
|        5417|   -6.341359|   -8.586663|    0.824248|    0.012013|
|        5418|   -6.340266|   -8.588879|    0.824248|    0.012013|
|        5419|   -6.339184|   -8.590925|    0.824249|    0.012013|
|        5420|   -6.338123|   -8.592810|    0.824249|    0.012013|
|        5421|   -6.337089|   -8.594545|    0.824249|    0.012013|
|        5422|   -6.336093|   -8.596138|    0.824249|    0.012013|
|        5423|   -6.335142|   -8.597596|    0.824249|    0.012013|
|        5424|   -6.334249|   -8.598926|    0.824249|    0.012013|
|        5425|   -6.333423|   -8.600134|    0.824249|    0.012013|
|        5426|   -6.332678|   -8.601226|    0.824249|    0.012013|
|        5427|   -6.332025|   -8.602206|    0.824250|    0.012013|
|        5428|   -6.331478|   -8.603079|    0.824250|    0.012013|
|        5429|   -6.331051|   -8.603851|    0.824250|    0.012013|
|        5430|   -6.330757|   -8.604527|    0.824250|    0.012013|
|        5431|   -6.330611|   -8.605114|    0.824250|    0.012013|
|        5432|   -6.330627|   -8.605620|    0.824250|    0.012013|
|        5433|   -6.330820|   -8.606054|    0.824250|    0.012013|
|        5434|   -6.331205|   -8.606426|    0.824250|    0.012013|
|        5435|   -6.331794|   -8.606747|    0.824250|    0.012013|
|        5436|   -6.332602|   -8.607032|    0.824250|    0.012013|
|        5437|   -6.333640|   -8.607292|    0.824250|    0.012013|
|        5438|   -6.334921|   -8.607545|    0.824250|    0.012013|
|        5439|   -6.336453|   -8.607804|    0.824250|    0.012013|
|        5440|   -6.338247|   -8.608087|    0.824250|    0.012013|
|        5441|   -6.340308|   -8.608408|    0.824250|    0.012013|
|        5442|   -6.342641|   -8.608785|    0.824250|    0.012013|
|        5443|   -6.345249|   -8.609232|    0.824250|    0.012013|
|        5444|   -6.348133|   -8.609763|    0.824250|    0.012013|
|        5445|   -6.351290|   -8.610394|    0.824250|    0.012013|
|        5446|   -6.354714|   -8.611134|    0.824250|    0.012013|
|        5447|   -6.358397|   -8.611997|    0.824250|    0.012013|
|        5448|   -6.362327|   -8.612991|    0.824250|    0.012013|
|        5449|   -6.366489|   -8.614124|    0.824250|    0.012014|
|        5450|   -6.370865|   -8.615402|    0.824250|    0.012014|
|        5451|   -6.375433|   -8.616829|    0.824250|    0.012014|
|        5452|   -6.380166|   -8.618409|    0.824250|    0.012014|
|        5453|   -6.385035|   -8.620142|    0.824250|    0.012014|
|        5454|   -6.390007|   -8.622030|    0.824250|    0.012014|
|        5455|   -6.395046|   -8.624069|    0.824250|    0.012014|
|        5456|   -6.400113|   -8.626258|    0.824250|    0.012014|
|        5457|   -6.405165|   -8.628593|    0.824250|    0.012014|
|        5458|   -6.410160|   -8.631069|    0.824250|    0.012014|
|        5459|   -6.415051|   -8.633680|    0.824250|    0.012014|
|        5460|   -6.419793|   -8.636421|    0.824250|    0.012014|
|        5461|   -6.424341|   -8.639285|    0.824250|    0.012014|
|        5462|   -6.428651|   -8.642265|    0.824250|    0.012015|
|        5463|   -6.432682|   -8.645353|    0.824249|    0.012015|
|        5464|   -6.436395|   -8.648543|    0.824249|    0.012015|
|        5465|   -6.439758|   -8.651827|    0.824249|    0.012015|
|        5466|   -6.442743|   -8.655197|    0.824249|    0.012015|
|        5467|   -6.445329|   -8.658646|    0.824249|    0.012015|
|        5468|   -6.447502|   -8.662167|    0.824249|    0.012015|
|        5469|   -6.449254|   -8.665752|    0.824249|    0.012015|
|        5470|   -6.450588|   -8.669395|    0.824249|    0.012015|
|        5471|   -6.451512|   -8.673087|    0.824248|    0.012015|
|        5472|   -6.452040|   -8.676822|    0.824248|    0.012015|
|        5473|   -6.452195|   -8.680593|    0.824248|    0.012015|
|        5474|   -6.452004|   -8.684393|    0.824248|    0.012015|
|        5475|   -6.451499|   -8.688215|    0.824248|    0.012015|
|        5476|   -6.450716|   -8.692052|    0.824248|    0.012015|
|        5477|   -6.449694|   -8.695897|    0.824247|    0.012015|
|        5478|   -6.448472|   -8.699744|    0.824247|    0.012015|
|        5479|   -6.447092|   -8.703585|    0.824247|    0.012016|
|        5480|   -6.445592|   -8.707413|    0.824247|    0.012016|
|        5481|   -6.444015|   -8.711223|    0.824247|    0.012016|
|        5482|   -6.442396|   -8.715008|    0.824247|    0.012016|
|        5483|   -6.440774|   -8.718761|    0.824246|    0.012016|
|        5484|   -6.439181|   -8.722479|    0.824246|    0.012016|
|        5485|   -6.437649|   -8.726154|    0.824246|    0.012016|
|        5486|   -6.436207|   -8.729784|    0.824246|    0.012016|
|        5487|   -6.434881|   -8.733365|    0.824246|    0.012016|
|        5488|   -6.433693|   -8.736894|    0.824246|    0.012016|
|        5489|   -6.432663|   -8.740368|    0.824246|    0.012016|
|        5490|   -6.431810|   -8.743789|    0.824245|    0.012016|
|        5491|   -6.431147|   -8.747155|    0.824245|    0.012016|
|        5492|   -6.430688|   -8.750469|    0.824245|    0.012016|
|        5493|   -6.430442|   -8.753732|    0.824245|    0.012016|
|        5494|   -6.430418|   -8.756948|    0.824245|    0.012016|
|        5495|   -6.430621|   -8.760122|    0.824245|    0.012015|
|        5496|   -6.431056|   -8.763258|    0.824245|    0.012015|
|        5497|   -6.431724|   -8.766363|    0.824245|    0.012015|
|        5498|   -6.432628|   -8.769442|    0.824245|    0.012015|
|        5499|   -6.433766|   -8.772502|    0.824245|    0.012001|
+-----------------------------------------------------------------------+
|Fixed CL Mode (Finite Difference)       |Value                         |
+-----------------------------------------------------------------------+
|Delta CL / Delta AoA                    |0.244547                      |
|Delta CD / Delta CL                     |0.0183025                     |
|Delta CMz / Delta CL                    |0.0079666                     |
+-----------------------------------------------------------------------+
Writing Flow Meta-Data file: flow.meta

----------------------------- Solver Exit -------------------------------

Maximum number of iterations reached (ITER = 5500) before convergence.
+-----------------------------------------------------------------------+
|      Convergence Field     |     Value    |   Criterion  |  Converged |
+-----------------------------------------------------------------------+
|                    rms[Rho]|      -6.43377|         < -12|          No|
+-----------------------------------------------------------------------+
-------------------------------------------------------------------------

--------------------------- Finalizing Solver ---------------------------
Deleted CNumerics container.
Deleted CIntegration container.
Deleted CSolver container.
Deleted CIteration container.
Deleted CInterface container.
Deleted CGeometry container.
Deleted CFreeFormDefBox class.
Deleted CSurfaceMovement class.
Deleted CVolumetricMovement class.
Deleted CConfig container.
Deleted nInst container.
Deleted COutput class.
-------------------------------------------------------------------------

------------------------- Exit Success (SU2_CFD) ------------------------


-------------------------------------------------------------------------
|    ___ _   _ ___                                                      |
|   / __| | | |_  )   Release 8.0.0 "Harrier"                           |
|   \__ \ |_| |/ /                                                      |
|   |___/\___//___|   Suite (Solution Exporting Code)                   |
|                                                                       |
-------------------------------------------------------------------------
| SU2 Project Website: https://su2code.github.io                        |
|                                                                       |
| The SU2 Project is maintained by the SU2 Foundation                   |
| (http://su2foundation.org)                                            |
-------------------------------------------------------------------------
| Copyright 2012-2023, SU2 Contributors                                 |
|                                                                       |
| SU2 is free software; you can redistribute it and/or                  |
| modify it under the terms of the GNU Lesser General Public            |
| License as published by the Free Software Foundation; either          |
| version 2.1 of the License, or (at your option) any later version.    |
|                                                                       |
| SU2 is distributed in the hope that it will be useful,                |
| but WITHOUT ANY WARRANTY; without even the implied warranty of        |
| MERCHANTABILITY or FITNESS FOR A PARTICULAR PURPOSE. See the GNU      |
| Lesser General Public License for more details.                       |
|                                                                       |
| You should have received a copy of the GNU Lesser General Public      |
| License along with SU2. If not, see <http://www.gnu.org/licenses/>.   |
-------------------------------------------------------------------------

----------------- Physical Case Definition ( Zone 0 ) -------------------
Input mesh file name: mesh_RAE2822_turb_deform.su2

-------------------- Output Information ( Zone 0 ) ----------------------
The tabular file format is CSV (.csv).
Flow variables file name: flow.

------------- Config File Boundary Information ( Zone 0 ) ---------------
+-----------------------------------------------------------------------+
|                        Marker Type|                        Marker Name|
+-----------------------------------------------------------------------+
|                          Far-field|                           FARFIELD|
+-----------------------------------------------------------------------+
|                     Heat flux wall|                            AIRFOIL|
+-----------------------------------------------------------------------+
Two dimensional problem.
13937 grid points before partitioning.
22842 volume elements before partitioning.
2 surface markers.
192 boundary elements in index 0 (Marker = AIRFOIL).
40 boundary elements in index 1 (Marker = FARFIELD).
Executing the partitioning functions.
Building the graph adjacency structure.
Calling ParMETIS... graph partitioning complete (831 edge cuts).
Distributing ParMETIS coloring.
Rebalancing vertices.
Rebalancing volume element connectivity.
Rebalancing markers and surface elements.
14875 vertices including ghost points. 
23674 interior elements including halo cells. 
18780 triangles.
4894 quadrilaterals.
Establishing MPI communication patterns.
Identify vertices.
Storing a mapping from global to local point index.

------------------------- Solution Postprocessing -----------------------
Reading and storing the solution from restart_flow.
Volume output fields: COORDINATES, SOLUTION
  Info: Ignoring the following screen output fields:
  RMS_DENSITY, RMS_NU_TILDE, LIFT, DRAG
Screen output fields: INNER_ITER
  Info: Ignoring the following history output groups:
  RMS_RES, AERO_COEFF
History output group(s): ITER
Warning: No (valid) fields chosen for convergence monitoring. Convergence monitoring inactive.
Warning: No (valid) fields chosen for time convergence monitoring. Time convergence monitoring inactive.
|Paraview                           |flow.vtu                           |
|Paraview surface                   |surface_flow.vtu                   |
|CSV file                           |surface_flow.csv                   |

------------------------- Finalize Solver -------------------------
Deleted CGeometry container.
Deleted CSolver class.
Deleted CConfig container.
Deleted COutput class.

Completed in 0.017331 seconds on 6 cores.

------------------------- Exit Success (SU2_SOL) ------------------------

