
-------------------------------------------------------------------------
|    ___ _   _ ___                                                      |
|   / __| | | |_  )   Release 8.0.0 "Harrier"                           |
|   \__ \ |_| |/ /                                                      |
|   |___/\___//___|   Suite (Computational Fluid Dynamics Code)         |
|                                                                       |
-------------------------------------------------------------------------
| SU2 Project Website: https://su2code.github.io                        |
|                                                                       |
| The SU2 Project is maintained by the SU2 Foundation                   |
| (http://su2foundation.org)                                            |
-------------------------------------------------------------------------
| Copyright 2012-2023, SU2 Contributors                                 |
|                                                                       |
| SU2 is free software; you can redistribute it and/or                  |
| modify it under the terms of the GNU Lesser General Public            |
| License as published by the Free Software Foundation; either          |
| version 2.1 of the License, or (at your option) any later version.    |
|                                                                       |
| SU2 is distributed in the hope that it will be useful,                |
| but WITHOUT ANY WARRANTY; without even the implied warranty of        |
| MERCHANTABILITY or FITNESS FOR A PARTICULAR PURPOSE. See the GNU      |
| Lesser General Public License for more details.                       |
|                                                                       |
| You should have received a copy of the GNU Lesser General Public      |
| License along with SU2. If not, see <http://www.gnu.org/licenses/>.   |
-------------------------------------------------------------------------

Parsing config file for zone 0

----------------- Physical Case Definition ( Zone 0 ) -------------------
Compressible RANS equations.
Turbulence model: Spalart-Allmaras-noft2
Hybrid RANS/LES: No Hybrid RANS/LES
Mach number: 0.734.
Angle of attack (AoA): 2.31 deg, and angle of sideslip (AoS): 0 deg.
Reynolds number: 6.5e+06. Reference length 1.
Fixed CL mode, target value: 0.824.
Reading and writing binary SU2 native restart files.
Read flow solution from: solution_flow.dat.
Dimensional simulation.
The reference area is 1 m^2.
The semi-span will be computed using the max y(3D) value.
The reference length is 1 m.
Reference origin for moment evaluation is (0.25, 0, 0).
Surface(s) where the force coefficients are evaluated: AIRFOIL.

Surface(s) plotted in the output file: AIRFOIL.
Surface(s) affected by the design variables: AIRFOIL.
Input mesh file name: mesh_RAE2822_turb_deform.su2

--------------- Space Numerical Integration ( Zone 0 ) ------------------
Jameson-Schmidt-Turkel scheme (2nd order in space) for the flow inviscid terms.
JST viscous coefficients (2nd & 4th): 0.5, 0.02.
The method includes a grid stretching correction (p = 0.3).
Scalar upwind solver for the turbulence model.
First order integration in space.
Average of gradients with correction (viscous flow terms).
Average of gradients with correction (viscous turbulence terms).
Gradient for viscous and source terms: inverse-distance weighted Least-Squares.

--------------- Time Numerical Integration  ( Zone 0 ) ------------------
Local time stepping (steady state simulation).
Euler implicit method for the flow equations.
FGMRES is used for solving the linear system.
Using a ILU(0) preconditioning.
Convergence criteria of the linear solver: 1e-06.
Max number of linear iterations: 10.
No CFL adaptation.
Courant-Friedrichs-Lewy number:       10
Euler implicit time integration for the turbulence model.

------------------ Convergence Criteria  ( Zone 0 ) ---------------------
Maximum number of solver subiterations: 5500.
Begin convergence monitoring at iteration 10.
Residual minimum value: 1e-12.
Cauchy series min. value: 1e-06.
Number of Cauchy elements: 100.
Begin windowed time average at iteration 0.

-------------------- Output Information ( Zone 0 ) ----------------------
File writing frequency: 
+------------------------------------+
|                     File| Frequency|
+------------------------------------+
|                  RESTART|     10000|
|                 PARAVIEW|     10000|
|         SURFACE_PARAVIEW|     10000|
|              SURFACE_CSV|     10000|
+------------------------------------+
Writing the convergence history file every 1 inner iterations.
Writing the screen convergence history every 1 inner iterations.
The tabular file format is CSV (.csv).
Convergence history file name: history_direct.
Forces breakdown file name: forces_breakdown.dat.
Surface file name: surface_flow.
Volume file name: flow.
Restart file name: restart_flow.dat.

------------- Config File Boundary Information ( Zone 0 ) ---------------
+-----------------------------------------------------------------------+
|                        Marker Type|                        Marker Name|
+-----------------------------------------------------------------------+
|                          Far-field|                           FARFIELD|
+-----------------------------------------------------------------------+
|                     Heat flux wall|                            AIRFOIL|
+-----------------------------------------------------------------------+

-------------------- Output Preprocessing ( Zone 0 ) --------------------

WARNING: SURFACE_PRESSURE_DROP can only be computed for at least 2 surfaces (outlet, inlet, ...)

Screen output fields: INNER_ITER, RMS_DENSITY, RMS_NU_TILDE, LIFT, DRAG
History output group(s): ITER, RMS_RES, AERO_COEFF
Convergence field(s): RMS_DENSITY
Warning: No (valid) fields chosen for time convergence monitoring. Time convergence monitoring inactive.
Volume output fields: COORDINATES, SOLUTION, PRIMITIVE

------------------- Geometry Preprocessing ( Zone 0 ) -------------------
Two dimensional problem.
13937 grid points before partitioning.
22842 volume elements before partitioning.
2 surface markers.
192 boundary elements in index 0 (Marker = AIRFOIL).
40 boundary elements in index 1 (Marker = FARFIELD).
Executing the partitioning functions.
Building the graph adjacency structure.
Calling ParMETIS... graph partitioning complete (831 edge cuts).
Distributing ParMETIS coloring.
Rebalancing vertices.
Rebalancing volume element connectivity.
Rebalancing markers and surface elements.
14875 vertices including ghost points. 
23674 interior elements including halo cells. 
18780 triangles.
4894 quadrilaterals.
Establishing MPI communication patterns.
Setting point connectivity.
Renumbering points (Reverse Cuthill McKee Ordering).
Recomputing point connectivity.
Setting element connectivity.
Checking the numerical grid orientation.
All volume elements are correctly orientend.
All surface elements are correctly orientend.
Identifying edges and vertices.
Setting the control volume structure.
Area of the computational grid: 32209.9.
Searching for the closest normal neighbors to the surfaces.
Storing a mapping from global to local point index.
Compute the surface curvature.
Max K: 229.818. Mean K: 8.78024. Standard deviation K: 29.7406.
Checking for periodicity.
Computing mesh quality statistics for the dual control volumes.
+--------------------------------------------------------------+
|           Mesh Quality Metric|        Minimum|        Maximum|
+--------------------------------------------------------------+
|    Orthogonality Angle (deg.)|        74.1246|        89.9993|
|     CV Face Area Aspect Ratio|        1.00112|        3359.53|
|           CV Sub-Volume Ratio|        1.00068|        1222.78|
+--------------------------------------------------------------+
Finding max control volume width.
Communicating number of neighbors.
Wetted area = 2.021 m.
Area projection in the x-plane = 0.129494 m, y-plane = 0.995873 m.
Max. coordinate in the x-direction = 1 m, y-direction = 0.0611357 m.
Min. coordinate in the x-direction = 0 m, y-direction = -0.0637584 m.
Computing wall distances.

-------------------- Solver Preprocessing ( Zone 0 ) --------------------
WARNING: AoA in the solution file (2.76337 deg.) +
         AoA offset in mesh file (0 deg.) = 2.76337 deg.
WARNING: SU2 will use the dCD/dCL provided in the direct solution file: 0.0209719.
WARNING: SU2 will use the dCMz/dCL provided in the direct solution file: 0.0310396.
Viscous flow: Computing pressure using the ideal gas law
based on the free-stream temperature and a density computed
from the Reynolds number.
Force coefficients computed using free-stream values.

-- Models:
+------------------------------------------------------------------------------+
|          Viscosity Model|        Conductivity Model|              Fluid Model|
+------------------------------------------------------------------------------+
|               SUTHERLAND|          CONSTANT_PRANDTL|             STANDARD_AIR|
+------------------------------------------------------------------------------+
-- Fluid properties:
+------------------------------------------------------------------------------+
|                  Name|    Dim. value|    Ref. value|      Unit|Non-dim. value|
+------------------------------------------------------------------------------+
|        Ref. Viscosity|     1.716e-05|             1|   N.s/m^2|     1.716e-05|
|      Sutherland Temp.|        273.15|             1|         K|        273.15|
|     Sutherland Const.|         110.4|             1|         K|         110.4|
+------------------------------------------------------------------------------+
|        Prandtl (Lam.)|             -|             -|         -|          0.71|
|       Prandtl (Turb.)|             -|             -|         -|           0.9|
+------------------------------------------------------------------------------+
|          Gas Constant|       287.058|             1|  N.m/kg.K|       287.058|
|      Spec. Heat Ratio|             -|             -|         -|           1.4|
+------------------------------------------------------------------------------+
-- Initial and free-stream conditions:
+------------------------------------------------------------------------------+
|                  Name|    Dim. value|    Ref. value|      Unit|Non-dim. value|
+------------------------------------------------------------------------------+
|       Static Pressure|         38515|             1|        Pa|         38515|
|               Density|      0.465631|             1|    kg/m^3|      0.465631|
|           Temperature|        288.15|             1|         K|        288.15|
|          Total Energy|        237984|             1|   m^2/s^2|        237984|
|            Velocity-X|       249.488|             1|       m/s|       249.488|
|            Velocity-Y|       12.0421|             1|       m/s|       12.0421|
|    Velocity Magnitude|       249.778|             1|       m/s|       249.778|
+------------------------------------------------------------------------------+
|             Viscosity|    1.7893e-05|             1|   N.s/m^2|    1.7893e-05|
|          Conductivity|             -|             1|   W/m^2.K|             -|
|     Turb. Kin. Energy|       233.959|             1|   m^2/s^2|       233.959|
|     Spec. Dissipation|        608834|             1|       1/s|        608834|
+------------------------------------------------------------------------------+
|           Mach Number|             -|             -|         -|         0.734|
|       Reynolds Number|             -|             -|         -|       6.5e+06|
+------------------------------------------------------------------------------+
Initialize Jacobian structure (Navier-Stokes). MG level: 0.
Initialize Jacobian structure (SA model).

------------------- Numerics Preprocessing ( Zone 0 ) -------------------

----------------- Integration Preprocessing ( Zone 0 ) ------------------

------------------- Iteration Preprocessing ( Zone 0 ) ------------------
Euler/Navier-Stokes/RANS fluid iteration.

------------------------------ Begin Solver -----------------------------

Simulation Run using the Single-zone Driver
WARNING: SU2 was not compiled for an AVX-capable architecture. Performance could be better,
         see https://su2code.github.io/docs_v7/Build-SU2-Linux-MacOS/#compiler-optimizations
+----------------------------------------------------------------+
|  Inner_Iter|    rms[Rho]|     rms[nu]|          CL|          CD|
+----------------------------------------------------------------+
|           0|   -4.105947|   -5.515910|    0.824650|    0.011890|
|           1|   -4.162655|   -5.615422|    0.824979|    0.012017|
|           2|   -4.222107|   -5.742571|    0.825059|    0.012092|
|           3|   -4.266344|   -5.896323|    0.824996|    0.012127|
|           4|   -4.296223|   -6.059663|    0.824885|    0.012136|
|           5|   -4.314112|   -6.174594|    0.824789|    0.012133|
|           6|   -4.322129|   -6.192490|    0.824735|    0.012129|
|           7|   -4.323103|   -6.162243|    0.824725|    0.012130|
|           8|   -4.319755|   -6.129200|    0.824752|    0.012140|
|           9|   -4.313814|   -6.099010|    0.824804|    0.012160|
|          10|   -4.306067|   -6.067080|    0.824873|    0.012187|
|          11|   -4.296916|   -6.034313|    0.824952|    0.012223|
|          12|   -4.286806|   -6.006253|    0.825037|    0.012264|
|          13|   -4.276275|   -5.988687|    0.825120|    0.012311|
|          14|   -4.265834|   -5.984916|    0.825195|    0.012361|
|          15|   -4.255864|   -5.995719|    0.825258|    0.012414|
|          16|   -4.246625|   -6.019562|    0.825303|    0.012467|
|          17|   -4.238332|   -6.051877|    0.825327|    0.012518|
|          18|   -4.231206|   -6.084323|    0.825327|    0.012567|
|          19|   -4.225482|   -6.105551|    0.825302|    0.012613|
|          20|   -4.221351|   -6.107211|    0.825253|    0.012653|
|          21|   -4.218896|   -6.090480|    0.825181|    0.012688|
|          22|   -4.218047|   -6.064627|    0.825089|    0.012718|
|          23|   -4.218579|   -6.039352|    0.824980|    0.012741|
|          24|   -4.220159|   -6.020464|    0.824858|    0.012759|
|          25|   -4.222409|   -6.010291|    0.824727|    0.012771|
|          26|   -4.224973|   -6.008836|    0.824589|    0.012777|
|          27|   -4.227564|   -6.014652|    0.824449|    0.012779|
|          28|   -4.229976|   -6.025338|    0.824309|    0.012775|
|          29|   -4.232059|   -6.037894|    0.824172|    0.012767|
|          30|   -4.233691|   -6.049262|    0.824039|    0.012755|
|          31|   -4.234742|   -6.057092|    0.823912|    0.012738|
|          32|   -4.235070|   -6.060455|    0.823790|    0.012718|
|          33|   -4.234536|   -6.060025|    0.823674|    0.012695|
|          34|   -4.233043|   -6.057574|    0.823564|    0.012668|
|          35|   -4.230567|   -6.055191|    0.823460|    0.012639|
|          36|   -4.227176|   -6.054675|    0.823360|    0.012608|
|          37|   -4.223022|   -6.057276|    0.823265|    0.012574|
|          38|   -4.218309|   -6.063685|    0.823173|    0.012539|
|          39|   -4.213255|   -6.074148|    0.823085|    0.012503|
|          40|   -4.208057|   -6.088396|    0.822999|    0.012467|
|          41|   -4.202871|   -6.105831|    0.822916|    0.012431|
|          42|   -4.197798|   -6.125485|    0.822837|    0.012395|
|          43|   -4.192894|   -6.145954|    0.822760|    0.012360|
|          44|   -4.188170|   -6.165416|    0.822687|    0.012326|
|          45|   -4.183601|   -6.181854|    0.822618|    0.012293|
|          46|   -4.179138|   -6.193369|    0.822554|    0.012261|
|          47|   -4.174706|   -6.198684|    0.822496|    0.012231|
|          48|   -4.170221|   -6.197620|    0.822444|    0.012202|
|          49|   -4.165594|   -6.191109|    0.822400|    0.012174|
|          50|   -4.160738|   -6.180851|    0.822364|    0.012148|
|          51|   -4.155588|   -6.168784|    0.822336|    0.012123|
|          52|   -4.150102|   -6.156676|    0.822318|    0.012098|
|          53|   -4.144270|   -6.145879|    0.822311|    0.012075|
|          54|   -4.138119|   -6.137298|    0.822313|    0.012052|
|          55|   -4.131702|   -6.131479|    0.822326|    0.012030|
|          56|   -4.125097|   -6.128605|    0.822349|    0.012008|
|          57|   -4.118391|   -6.128649|    0.822383|    0.011987|
|          58|   -4.111673|   -6.131422|    0.822426|    0.011966|
|          59|   -4.105024|   -6.136607|    0.822477|    0.011946|
|          60|   -4.098507|   -6.143799|    0.822537|    0.011926|
|          61|   -4.092169|   -6.152557|    0.822603|    0.011908|
|          62|   -4.086034|   -6.162388|    0.822675|    0.011889|
|          63|   -4.080114|   -6.172829|    0.822750|    0.011872|
|          64|   -4.074405|   -6.183441|    0.822828|    0.011855|
|          65|   -4.068900|   -6.193823|    0.822908|    0.011840|
|          66|   -4.063589|   -6.203629|    0.822987|    0.011825|
|          67|   -4.058466|   -6.212554|    0.823065|    0.011811|
|          68|   -4.053531|   -6.220383|    0.823140|    0.011798|
|          69|   -4.048793|   -6.226986|    0.823212|    0.011786|
|          70|   -4.044263|   -6.232314|    0.823280|    0.011775|
|          71|   -4.039959|   -6.236404|    0.823342|    0.011765|
|          72|   -4.035901|   -6.239374|    0.823399|    0.011756|
|          73|   -4.032103|   -6.241400|    0.823450|    0.011747|
|          74|   -4.028579|   -6.242657|    0.823496|    0.011740|
|          75|   -4.025331|   -6.243311|    0.823535|    0.011732|
|          76|   -4.022356|   -6.243481|    0.823570|    0.011726|
|          77|   -4.019640|   -6.243243|    0.823599|    0.011720|
|          78|   -4.017163|   -6.242629|    0.823624|    0.011714|
|          79|   -4.014899|   -6.241610|    0.823644|    0.011709|
|          80|   -4.012819|   -6.240144|    0.823661|    0.011705|
|          81|   -4.010892|   -6.238207|    0.823674|    0.011701|
|          82|   -4.009090|   -6.235799|    0.823685|    0.011697|
|          83|   -4.007391|   -6.232989|    0.823694|    0.011695|
|          84|   -4.005781|   -6.229912|    0.823701|    0.011692|
|          85|   -4.004252|   -6.226738|    0.823707|    0.011691|
|          86|   -4.002809|   -6.223673|    0.823713|    0.011690|
|          87|   -4.001464|   -6.220933|    0.823718|    0.011689|
|          88|   -4.000239|   -6.218719|    0.823722|    0.011689|
|          89|   -3.999163|   -6.217185|    0.823728|    0.011690|
|          90|   -3.998270|   -6.216450|    0.823733|    0.011692|
|          91|   -3.997599|   -6.216582|    0.823740|    0.011695|
|          92|   -3.997188|   -6.217608|    0.823747|    0.011698|
|          93|   -3.997076|   -6.219507|    0.823756|    0.011703|
|          94|   -3.997298|   -6.222216|    0.823765|    0.011708|
|          95|   -3.997883|   -6.225654|    0.823777|    0.011714|
|          96|   -3.998854|   -6.229726|    0.823790|    0.011721|
|          97|   -4.000228|   -6.234328|    0.823804|    0.011729|
|          98|   -4.002009|   -6.239359|    0.823820|    0.011738|
|          99|   -4.004191|   -6.244762|    0.823838|    0.011747|
|         100|   -4.006758|   -6.250410|    0.823857|    0.011758|
|         101|   -4.009679|   -6.256219|    0.823877|    0.011780|
+-----------------------------------------------------------------------+
|Fixed CL Mode                           |Value                         |
+-----------------------------------------------------------------------+
|Current CL                              |0.823877                      |
|Target CL                               |0.824                         |
|Previous AOA                            |2.76337                       |
|Changed AoA by                          |0.000715137                   |
+-----------------------------------------------------------------------+
+----------------------------------------------------------------+
|  Inner_Iter|    rms[Rho]|     rms[nu]|          CL|          CD|
+----------------------------------------------------------------+
|         102|   -3.330892|   -6.261354|    0.823899|    0.011792|
|         103|   -3.688849|   -6.267769|    0.823921|    0.011805|
|         104|   -3.879496|   -6.273840|    0.823944|    0.011819|
|         105|   -3.921888|   -6.279833|    0.823967|    0.011833|
|         106|   -3.938067|   -6.285794|    0.823991|    0.011848|
|         107|   -3.955451|   -6.291732|    0.824013|    0.011863|
|         108|   -3.973213|   -6.297655|    0.824036|    0.011878|
|         109|   -3.987181|   -6.303573|    0.824057|    0.011894|
|         110|   -3.996245|   -6.309492|    0.824076|    0.011909|
|         111|   -4.002057|   -6.315450|    0.824094|    0.011925|
|         112|   -4.006353|   -6.321438|    0.824110|    0.011940|
|         113|   -4.009867|   -6.327464|    0.824124|    0.011955|
|         114|   -4.012757|   -6.333519|    0.824136|    0.011970|
|         115|   -4.015140|   -6.339586|    0.824145|    0.011984|
|         116|   -4.017198|   -6.345639|    0.824151|    0.011998|
|         117|   -4.019038|   -6.351648|    0.824155|    0.012011|
|         118|   -4.020606|   -6.357587|    0.824157|    0.012024|
|         119|   -4.021743|   -6.363425|    0.824156|    0.012036|
|         120|   -4.022338|   -6.369131|    0.824153|    0.012047|
|         121|   -4.022423|   -6.374677|    0.824149|    0.012057|
|         122|   -4.022160|   -6.380062|    0.824142|    0.012066|
|         123|   -4.021746|   -6.385280|    0.824135|    0.012075|
|         124|   -4.021316|   -6.390349|    0.824126|    0.012084|
|         125|   -4.020907|   -6.395311|    0.824116|    0.012091|
|         126|   -4.020470|   -6.400211|    0.824106|    0.012098|
|         127|   -4.019927|   -6.405084|    0.824096|    0.012105|
|         128|   -4.019208|   -6.409982|    0.824086|    0.012111|
|         129|   -4.018276|   -6.414954|    0.824076|    0.012116|
|         130|   -4.017131|   -6.420050|    0.824066|    0.012121|
|         131|   -4.015804|   -6.425312|    0.824058|    0.012126|
|         132|   -4.014338|   -6.430756|    0.824050|    0.012131|
|         133|   -4.012784|   -6.436375|    0.824044|    0.012136|
|         134|   -4.011181|   -6.442162|    0.824038|    0.012140|
|         135|   -4.009549|   -6.448082|    0.824034|    0.012145|
|         136|   -4.007883|   -6.454059|    0.824031|    0.012149|
|         137|   -4.006159|   -6.460024|    0.824028|    0.012153|
|         138|   -4.004335|   -6.465924|    0.824027|    0.012158|
|         139|   -4.002364|   -6.471626|    0.824027|    0.012162|
|         140|   -4.000200|   -6.477043|    0.824027|    0.012166|
|         141|   -3.997812|   -6.482085|    0.824028|    0.012171|
|         142|   -3.995184|   -6.486668|    0.824029|    0.012175|
|         143|   -3.992321|   -6.490748|    0.824030|    0.012179|
|         144|   -3.989247|   -6.494308|    0.824032|    0.012183|
|         145|   -3.986001|   -6.497372|    0.824033|    0.012187|
|         146|   -3.982627|   -6.499898|    0.824034|    0.012190|
|         147|   -3.979177|   -6.501939|    0.824034|    0.012194|
|         148|   -3.975694|   -6.503564|    0.824034|    0.012197|
|         149|   -3.972218|   -6.504879|    0.824033|    0.012200|
|         150|   -3.968779|   -6.505930|    0.824031|    0.012202|
|         151|   -3.965399|   -6.506813|    0.824028|    0.012204|
|         152|   -3.962094|   -6.507612|    0.824025|    0.012206|
|         153|   -3.958875|   -6.508409|    0.824020|    0.012207|
|         154|   -3.955752|   -6.509269|    0.824014|    0.012208|
|         155|   -3.952734|   -6.510240|    0.824008|    0.012208|
|         156|   -3.949833|   -6.511377|    0.824001|    0.012208|
|         157|   -3.947059|   -6.512685|    0.823993|    0.012208|
|         158|   -3.944424|   -6.514178|    0.823985|    0.012207|
|         159|   -3.941941|   -6.515715|    0.823976|    0.012205|
|         160|   -3.939621|   -6.517272|    0.823967|    0.012204|
|         161|   -3.937476|   -6.518827|    0.823958|    0.012201|
|         162|   -3.935514|   -6.520334|    0.823949|    0.012199|
|         163|   -3.933742|   -6.521776|    0.823941|    0.012196|
|         164|   -3.932166|   -6.523084|    0.823932|    0.012192|
|         165|   -3.930788|   -6.524208|    0.823924|    0.012189|
|         166|   -3.929606|   -6.525048|    0.823917|    0.012185|
|         167|   -3.928619|   -6.525757|    0.823911|    0.012180|
|         168|   -3.927820|   -6.526316|    0.823905|    0.012176|
|         169|   -3.927201|   -6.526742|    0.823901|    0.012171|
|         170|   -3.926751|   -6.527075|    0.823897|    0.012167|
|         171|   -3.926457|   -6.527367|    0.823895|    0.012162|
|         172|   -3.926305|   -6.527664|    0.823893|    0.012157|
|         173|   -3.926278|   -6.528040|    0.823893|    0.012151|
|         174|   -3.926361|   -6.528565|    0.823894|    0.012146|
|         175|   -3.926539|   -6.529303|    0.823895|    0.012141|
|         176|   -3.926795|   -6.530307|    0.823898|    0.012135|
|         177|   -3.927120|   -6.531617|    0.823902|    0.012130|
|         178|   -3.927505|   -6.533259|    0.823907|    0.012124|
|         179|   -3.927945|   -6.535233|    0.823912|    0.012119|
|         180|   -3.928442|   -6.537550|    0.823919|    0.012113|
|         181|   -3.929002|   -6.540198|    0.823926|    0.012108|
|         182|   -3.929635|   -6.543151|    0.823933|    0.012102|
|         183|   -3.930358|   -6.546356|    0.823941|    0.012096|
|         184|   -3.931193|   -6.549766|    0.823949|    0.012091|
|         185|   -3.932162|   -6.553313|    0.823957|    0.012085|
|         186|   -3.933294|   -6.556923|    0.823966|    0.012079|
|         187|   -3.934617|   -6.560523|    0.823974|    0.012073|
|         188|   -3.936157|   -6.564058|    0.823983|    0.012068|
|         189|   -3.937941|   -6.567476|    0.823991|    0.012062|
|         190|   -3.939990|   -6.570721|    0.824000|    0.012056|
|         191|   -3.942321|   -6.573763|    0.824008|    0.012050|
|         192|   -3.944944|   -6.576590|    0.824015|    0.012044|
|         193|   -3.947859|   -6.579204|    0.824023|    0.012038|
|         194|   -3.951059|   -6.581622|    0.824030|    0.012032|
|         195|   -3.954526|   -6.583871|    0.824037|    0.012026|
|         196|   -3.958229|   -6.585964|    0.824044|    0.012020|
|         197|   -3.962130|   -6.587940|    0.824050|    0.012014|
|         198|   -3.966176|   -6.589862|    0.824056|    0.012008|
|         199|   -3.970307|   -6.591804|    0.824062|    0.012003|
|         200|   -3.974453|   -6.593814|    0.824067|    0.011997|
|         201|   -3.978538|   -6.595948|    0.824073|    0.011987|
+-----------------------------------------------------------------------+
|Fixed CL Mode                           |Value                         |
+-----------------------------------------------------------------------+
|Current CL                              |0.824073                      |
|Target CL                               |0.824                         |
|Previous AOA                            |2.76409                       |
|Changed AoA by                          |-0.000336825                  |
+-----------------------------------------------------------------------+
+----------------------------------------------------------------+
|  Inner_Iter|    rms[Rho]|     rms[nu]|          CL|          CD|
+----------------------------------------------------------------+
|         202|   -3.621933|   -6.596994|    0.824078|    0.011981|
|         203|   -3.867240|   -6.599950|    0.824083|    0.011976|
|         204|   -3.939338|   -6.602867|    0.824087|    0.011971|
|         205|   -3.952557|   -6.606074|    0.824092|    0.011966|
|         206|   -3.962160|   -6.609644|    0.824097|    0.011962|
|         207|   -3.973346|   -6.613579|    0.824101|    0.011958|
|         208|   -3.983898|   -6.617876|    0.824105|    0.011954|
|         209|   -3.991812|   -6.622501|    0.824110|    0.011950|
|         210|   -3.996720|   -6.627394|    0.824114|    0.011947|
|         211|   -3.999360|   -6.632500|    0.824118|    0.011944|
|         212|   -4.000594|   -6.637764|    0.824123|    0.011941|
|         213|   -4.001011|   -6.643127|    0.824127|    0.011939|
|         214|   -4.000989|   -6.648519|    0.824131|    0.011937|
|         215|   -4.000828|   -6.653865|    0.824136|    0.011935|
|         216|   -4.000782|   -6.659083|    0.824140|    0.011934|
|         217|   -4.001042|   -6.664100|    0.824144|    0.011933|
|         218|   -4.001720|   -6.668841|    0.824149|    0.011933|
|         219|   -4.002869|   -6.673242|    0.824153|    0.011933|
|         220|   -4.004524|   -6.677244|    0.824157|    0.011933|
|         221|   -4.006734|   -6.680813|    0.824162|    0.011934|
|         222|   -4.009570|   -6.683930|    0.824166|    0.011935|
|         223|   -4.013111|   -6.686598|    0.824171|    0.011937|
|         224|   -4.017433|   -6.688830|    0.824175|    0.011938|
|         225|   -4.022590|   -6.690665|    0.824180|    0.011941|
|         226|   -4.028619|   -6.692160|    0.824185|    0.011943|
|         227|   -4.035541|   -6.693389|    0.824190|    0.011946|
|         228|   -4.043364|   -6.694431|    0.824195|    0.011949|
|         229|   -4.052087|   -6.695374|    0.824200|    0.011953|
|         230|   -4.061700|   -6.696302|    0.824205|    0.011956|
|         231|   -4.072181|   -6.697306|    0.824210|    0.011960|
|         232|   -4.083499|   -6.698468|    0.824216|    0.011964|
|         233|   -4.095609|   -6.699866|    0.824222|    0.011969|
|         234|   -4.108455|   -6.701572|    0.824228|    0.011973|
|         235|   -4.121963|   -6.703658|    0.824234|    0.011978|
|         236|   -4.136043|   -6.706182|    0.824240|    0.011983|
|         237|   -4.150583|   -6.709191|    0.824247|    0.011988|
|         238|   -4.165451|   -6.712711|    0.824254|    0.011994|
|         239|   -4.180489|   -6.716757|    0.824261|    0.011999|
|         240|   -4.195522|   -6.721335|    0.824269|    0.012004|
|         241|   -4.210354|   -6.726437|    0.824276|    0.012010|
|         242|   -4.224779|   -6.732038|    0.824284|    0.012015|
|         243|   -4.238588|   -6.738101|    0.824292|    0.012021|
|         244|   -4.251582|   -6.744579|    0.824300|    0.012026|
|         245|   -4.263580|   -6.751417|    0.824308|    0.012032|
|         246|   -4.274432|   -6.758539|    0.824316|    0.012037|
|         247|   -4.284028|   -6.765855|    0.824324|    0.012043|
|         248|   -4.292303|   -6.773260|    0.824331|    0.012048|
|         249|   -4.299236|   -6.780651|    0.824339|    0.012054|
|         250|   -4.304852|   -6.787925|    0.824346|    0.012059|
|         251|   -4.309216|   -6.794983|    0.824352|    0.012064|
|         252|   -4.312426|   -6.801745|    0.824358|    0.012069|
|         253|   -4.314605|   -6.808131|    0.824364|    0.012074|
|         254|   -4.315894|   -6.814079|    0.824369|    0.012079|
|         255|   -4.316442|   -6.819552|    0.824373|    0.012084|
|         256|   -4.316402|   -6.824531|    0.824377|    0.012088|
|         257|   -4.315921|   -6.829022|    0.824379|    0.012092|
|         258|   -4.315134|   -6.833055|    0.824381|    0.012096|
|         259|   -4.314167|   -6.836677|    0.824382|    0.012100|
|         260|   -4.313129|   -6.839950|    0.824382|    0.012104|
|         261|   -4.312114|   -6.842942|    0.824381|    0.012107|
|         262|   -4.311202|   -6.845728|    0.824379|    0.012110|
|         263|   -4.310458|   -6.848379|    0.824377|    0.012113|
|         264|   -4.309936|   -6.850956|    0.824373|    0.012116|
|         265|   -4.309679|   -6.853497|    0.824368|    0.012118|
|         266|   -4.309721|   -6.856039|    0.824362|    0.012121|
|         267|   -4.310087|   -6.858590|    0.824356|    0.012122|
|         268|   -4.310799|   -6.861129|    0.824349|    0.012124|
|         269|   -4.311871|   -6.863612|    0.824341|    0.012125|
|         270|   -4.313314|   -6.865980|    0.824332|    0.012127|
|         271|   -4.315135|   -6.868157|    0.824323|    0.012127|
|         272|   -4.317339|   -6.870066|    0.824314|    0.012128|
|         273|   -4.319926|   -6.871599|    0.824304|    0.012128|
|         274|   -4.322895|   -6.872658|    0.824293|    0.012128|
|         275|   -4.326242|   -6.873153|    0.824283|    0.012128|
|         276|   -4.329962|   -6.873015|    0.824272|    0.012128|
|         277|   -4.334047|   -6.872192|    0.824262|    0.012127|
|         278|   -4.338487|   -6.870667|    0.824251|    0.012126|
|         279|   -4.343270|   -6.868449|    0.824240|    0.012125|
|         280|   -4.348381|   -6.865575|    0.824230|    0.012124|
|         281|   -4.353804|   -6.862111|    0.824220|    0.012123|
|         282|   -4.359519|   -6.858160|    0.824211|    0.012121|
|         283|   -4.365506|   -6.853831|    0.824201|    0.012119|
|         284|   -4.371740|   -6.849266|    0.824193|    0.012117|
|         285|   -4.378193|   -6.844605|    0.824184|    0.012115|
|         286|   -4.384838|   -6.839988|    0.824177|    0.012112|
|         287|   -4.391640|   -6.835535|    0.824170|    0.012110|
|         288|   -4.398567|   -6.831364|    0.824163|    0.012107|
|         289|   -4.405583|   -6.827578|    0.824158|    0.012104|
|         290|   -4.412650|   -6.824275|    0.824152|    0.012101|
|         291|   -4.419731|   -6.821530|    0.824148|    0.012098|
|         292|   -4.426789|   -6.819406|    0.824144|    0.012095|
|         293|   -4.433787|   -6.817955|    0.824141|    0.012092|
|         294|   -4.440689|   -6.817199|    0.824138|    0.012089|
|         295|   -4.447465|   -6.817154|    0.824136|    0.012085|
|         296|   -4.454082|   -6.817815|    0.824135|    0.012082|
|         297|   -4.460516|   -6.819168|    0.824134|    0.012078|
|         298|   -4.466745|   -6.821190|    0.824133|    0.012074|
|         299|   -4.472748|   -6.823856|    0.824134|    0.012071|
|         300|   -4.478513|   -6.827127|    0.824134|    0.012067|
|         301|   -4.484029|   -6.830957|    0.824135|    0.012054|
+-----------------------------------------------------------------------+
|Fixed CL Mode                           |Value                         |
+-----------------------------------------------------------------------+
|Current CL                              |0.824135                      |
|Target CL                               |0.824                         |
|Previous AOA                            |2.76375                       |
|Changed AoA by                          |-0.000670572                  |
+-----------------------------------------------------------------------+
+----------------------------------------------------------------+
|  Inner_Iter|    rms[Rho]|     rms[nu]|          CL|          CD|
+----------------------------------------------------------------+
|         302|   -3.365479|   -6.822968|    0.824137|    0.012050|
|         303|   -3.742461|   -6.833491|    0.824139|    0.012046|
|         304|   -3.968646|   -6.840356|    0.824141|    0.012042|
|         305|   -4.037800|   -6.846765|    0.824143|    0.012038|
|         306|   -4.084701|   -6.853159|    0.824146|    0.012035|
|         307|   -4.143561|   -6.859595|    0.824149|    0.012031|
|         308|   -4.212018|   -6.866056|    0.824153|    0.012027|
|         309|   -4.277677|   -6.872515|    0.824156|    0.012024|
|         310|   -4.329125|   -6.878938|    0.824160|    0.012020|
|         311|   -4.363994|   -6.885294|    0.824164|    0.012017|
|         312|   -4.386073|   -6.891548|    0.824169|    0.012013|
|         313|   -4.399023|   -6.897688|    0.824173|    0.012010|
|         314|   -4.405494|   -6.903712|    0.824178|    0.012007|
|         315|   -4.408513|   -6.909626|    0.824183|    0.012003|
|         316|   -4.411261|   -6.915432|    0.824188|    0.012000|
|         317|   -4.415841|   -6.921132|    0.824193|    0.011997|
|         318|   -4.422665|   -6.926739|    0.824199|    0.011994|
|         319|   -4.430804|   -6.932275|    0.824205|    0.011992|
|         320|   -4.438876|   -6.937767|    0.824211|    0.011989|
|         321|   -4.445916|   -6.943252|    0.824217|    0.011987|
|         322|   -4.451740|   -6.948753|    0.824223|    0.011984|
|         323|   -4.456722|   -6.954289|    0.824230|    0.011982|
|         324|   -4.461316|   -6.959878|    0.824237|    0.011980|
|         325|   -4.465728|   -6.965525|    0.824244|    0.011978|
|         326|   -4.469878|   -6.971240|    0.824251|    0.011976|
|         327|   -4.473546|   -6.977028|    0.824258|    0.011975|
|         328|   -4.476522|   -6.982893|    0.824266|    0.011973|
|         329|   -4.478690|   -6.988842|    0.824274|    0.011972|
|         330|   -4.480034|   -6.994883|    0.824282|    0.011971|
|         331|   -4.480626|   -7.001012|    0.824290|    0.011970|
|         332|   -4.480608|   -7.007220|    0.824299|    0.011969|
|         333|   -4.480180|   -7.013492|    0.824307|    0.011968|
|         334|   -4.479564|   -7.019802|    0.824316|    0.011967|
|         335|   -4.478966|   -7.026114|    0.824324|    0.011967|
|         336|   -4.478540|   -7.032383|    0.824333|    0.011967|
|         337|   -4.478368|   -7.038561|    0.824342|    0.011966|
|         338|   -4.478457|   -7.044596|    0.824350|    0.011966|
|         339|   -4.478756|   -7.050426|    0.824359|    0.011966|
|         340|   -4.479175|   -7.055993|    0.824368|    0.011967|
|         341|   -4.479615|   -7.061240|    0.824376|    0.011967|
|         342|   -4.479992|   -7.066117|    0.824384|    0.011967|
|         343|   -4.480266|   -7.070580|    0.824392|    0.011968|
|         344|   -4.480450|   -7.074586|    0.824400|    0.011969|
|         345|   -4.480610|   -7.078107|    0.824408|    0.011969|
|         346|   -4.480853|   -7.081125|    0.824415|    0.011970|
|         347|   -4.481295|   -7.083634|    0.824422|    0.011971|
|         348|   -4.482046|   -7.085641|    0.824428|    0.011972|
|         349|   -4.483185|   -7.087163|    0.824434|    0.011973|
|         350|   -4.484756|   -7.088231|    0.824440|    0.011975|
|         351|   -4.486765|   -7.088883|    0.824445|    0.011976|
|         352|   -4.489192|   -7.089173|    0.824449|    0.011977|
|         353|   -4.492000|   -7.089147|    0.824453|    0.011979|
|         354|   -4.495151|   -7.088869|    0.824457|    0.011980|
|         355|   -4.498613|   -7.088409|    0.824459|    0.011982|
|         356|   -4.502367|   -7.087838|    0.824461|    0.011983|
|         357|   -4.506407|   -7.087223|    0.824462|    0.011985|
|         358|   -4.510742|   -7.086634|    0.824463|    0.011986|
|         359|   -4.515383|   -7.086137|    0.824463|    0.011988|
|         360|   -4.520348|   -7.085796|    0.824462|    0.011989|
|         361|   -4.525647|   -7.085672|    0.824461|    0.011991|
|         362|   -4.531285|   -7.085822|    0.824459|    0.011993|
|         363|   -4.537260|   -7.086295|    0.824456|    0.011994|
|         364|   -4.543557|   -7.087135|    0.824453|    0.011996|
|         365|   -4.550158|   -7.088378|    0.824449|    0.011998|
|         366|   -4.557035|   -7.090052|    0.824444|    0.011999|
|         367|   -4.564154|   -7.092172|    0.824439|    0.012001|
|         368|   -4.571480|   -7.094750|    0.824433|    0.012003|
|         369|   -4.578970|   -7.097784|    0.824427|    0.012004|
|         370|   -4.586579|   -7.101264|    0.824420|    0.012006|
|         371|   -4.594256|   -7.105165|    0.824414|    0.012007|
|         372|   -4.601948|   -7.109452|    0.824406|    0.012009|
|         373|   -4.609594|   -7.114076|    0.824399|    0.012011|
|         374|   -4.617131|   -7.118978|    0.824391|    0.012012|
|         375|   -4.624493|   -7.124084|    0.824383|    0.012014|
|         376|   -4.631611|   -7.129309|    0.824374|    0.012015|
|         377|   -4.638416|   -7.134549|    0.824366|    0.012017|
|         378|   -4.644842|   -7.139705|    0.824357|    0.012018|
|         379|   -4.650827|   -7.144666|    0.824349|    0.012019|
|         380|   -4.656316|   -7.149324|    0.824341|    0.012021|
|         381|   -4.661263|   -7.153573|    0.824332|    0.012022|
|         382|   -4.665632|   -7.157317|    0.824324|    0.012023|
|         383|   -4.669400|   -7.160475|    0.824315|    0.012024|
|         384|   -4.672559|   -7.162978|    0.824307|    0.012026|
|         385|   -4.675112|   -7.164780|    0.824299|    0.012027|
|         386|   -4.677076|   -7.165858|    0.824291|    0.012028|
|         387|   -4.678481|   -7.166223|    0.824284|    0.012029|
|         388|   -4.679367|   -7.165911|    0.824276|    0.012030|
|         389|   -4.679780|   -7.164975|    0.824269|    0.012031|
|         390|   -4.679777|   -7.163485|    0.824262|    0.012031|
|         391|   -4.679414|   -7.161525|    0.824255|    0.012032|
|         392|   -4.678751|   -7.159188|    0.824249|    0.012033|
|         393|   -4.677848|   -7.156571|    0.824242|    0.012033|
|         394|   -4.676760|   -7.153770|    0.824236|    0.012034|
|         395|   -4.675543|   -7.150874|    0.824230|    0.012034|
|         396|   -4.674243|   -7.147970|    0.824225|    0.012035|
|         397|   -4.672906|   -7.145129|    0.824219|    0.012035|
|         398|   -4.671570|   -7.142417|    0.824214|    0.012035|
|         399|   -4.670267|   -7.139883|    0.824209|    0.012036|
|         400|   -4.669024|   -7.137564|    0.824204|    0.012036|
|         401|   -4.667864|   -7.135488|    0.824200|    0.012021|
+-----------------------------------------------------------------------+
|Fixed CL Mode                           |Value                         |
+-----------------------------------------------------------------------+
|Current CL                              |0.8242                        |
|Target CL                               |0.824                         |
|Previous AOA                            |2.76308                       |
|Changed AoA by                          |-0.0010208                    |
+-----------------------------------------------------------------------+
+----------------------------------------------------------------+
|  Inner_Iter|    rms[Rho]|     rms[nu]|          CL|          CD|
+----------------------------------------------------------------+
|         402|   -3.184316|   -7.045194|    0.824196|    0.012021|
|         403|   -3.567986|   -7.084710|    0.824191|    0.012021|
|         404|   -3.809166|   -7.097295|    0.824188|    0.012021|
|         405|   -3.885490|   -7.104075|    0.824184|    0.012021|
|         406|   -3.937102|   -7.108632|    0.824180|    0.012020|
|         407|   -4.003943|   -7.111860|    0.824177|    0.012020|
|         408|   -4.085645|   -7.114129|    0.824174|    0.012019|
|         409|   -4.169216|   -7.115705|    0.824171|    0.012019|
|         410|   -4.239238|   -7.116769|    0.824168|    0.012018|
|         411|   -4.289134|   -7.117406|    0.824166|    0.012018|
|         412|   -4.321505|   -7.117674|    0.824164|    0.012017|
|         413|   -4.340375|   -7.117691|    0.824161|    0.012016|
|         414|   -4.349264|   -7.117595|    0.824159|    0.012016|
|         415|   -4.353035|   -7.117472|    0.824157|    0.012015|
|         416|   -4.357108|   -7.117325|    0.824156|    0.012014|
|         417|   -4.365137|   -7.117115|    0.824154|    0.012013|
|         418|   -4.377963|   -7.116805|    0.824153|    0.012012|
|         419|   -4.394118|   -7.116380|    0.824151|    0.012011|
|         420|   -4.411158|   -7.115853|    0.824150|    0.012010|
|         421|   -4.427172|   -7.115239|    0.824149|    0.012009|
|         422|   -4.441664|   -7.114528|    0.824148|    0.012008|
|         423|   -4.455336|   -7.113708|    0.824147|    0.012007|
|         424|   -4.469170|   -7.112765|    0.824146|    0.012006|
|         425|   -4.483656|   -7.111704|    0.824146|    0.012005|
|         426|   -4.498582|   -7.110539|    0.824145|    0.012004|
|         427|   -4.513269|   -7.109305|    0.824145|    0.012003|
|         428|   -4.526939|   -7.108048|    0.824144|    0.012002|
|         429|   -4.538984|   -7.106818|    0.824144|    0.012001|
|         430|   -4.549092|   -7.105671|    0.824144|    0.012000|
|         431|   -4.557289|   -7.104659|    0.824144|    0.011999|
|         432|   -4.563928|   -7.103831|    0.824144|    0.011998|
|         433|   -4.569638|   -7.103225|    0.824145|    0.011997|
|         434|   -4.575184|   -7.102872|    0.824145|    0.011996|
|         435|   -4.581304|   -7.102786|    0.824145|    0.011995|
|         436|   -4.588556|   -7.102973|    0.824146|    0.011994|
|         437|   -4.597223|   -7.103439|    0.824146|    0.011993|
|         438|   -4.607287|   -7.104177|    0.824147|    0.011992|
|         439|   -4.618436|   -7.105170|    0.824148|    0.011991|
|         440|   -4.630115|   -7.106391|    0.824149|    0.011990|
|         441|   -4.641612|   -7.107816|    0.824149|    0.011990|
|         442|   -4.652193|   -7.109417|    0.824150|    0.011989|
|         443|   -4.661265|   -7.111163|    0.824151|    0.011988|
|         444|   -4.668531|   -7.113024|    0.824152|    0.011988|
|         445|   -4.674054|   -7.114967|    0.824153|    0.011987|
|         446|   -4.678214|   -7.116956|    0.824154|    0.011987|
|         447|   -4.681564|   -7.118957|    0.824155|    0.011987|
|         448|   -4.684656|   -7.120933|    0.824156|    0.011986|
|         449|   -4.687910|   -7.122837|    0.824156|    0.011986|
|         450|   -4.691538|   -7.124625|    0.824157|    0.011986|
|         451|   -4.695539|   -7.126261|    0.824158|    0.011985|
|         452|   -4.699747|   -7.127704|    0.824158|    0.011985|
|         453|   -4.703896|   -7.128913|    0.824158|    0.011985|
|         454|   -4.707706|   -7.129863|    0.824158|    0.011985|
|         455|   -4.710948|   -7.130532|    0.824158|    0.011985|
|         456|   -4.713492|   -7.130907|    0.824157|    0.011985|
|         457|   -4.715322|   -7.130987|    0.824157|    0.011985|
|         458|   -4.716516|   -7.130787|    0.824156|    0.011985|
|         459|   -4.717219|   -7.130327|    0.824154|    0.011985|
|         460|   -4.717596|   -7.129645|    0.824153|    0.011985|
|         461|   -4.717804|   -7.128791|    0.824151|    0.011986|
|         462|   -4.717970|   -7.127824|    0.824149|    0.011986|
|         463|   -4.718183|   -7.126809|    0.824146|    0.011986|
|         464|   -4.718500|   -7.125816|    0.824143|    0.011986|
|         465|   -4.718954|   -7.124914|    0.824140|    0.011987|
|         466|   -4.719563|   -7.124174|    0.824137|    0.011987|
|         467|   -4.720344|   -7.123664|    0.824134|    0.011987|
|         468|   -4.721312|   -7.123447|    0.824130|    0.011988|
|         469|   -4.722488|   -7.123578|    0.824126|    0.011988|
|         470|   -4.723895|   -7.124108|    0.824122|    0.011989|
|         471|   -4.725556|   -7.125073|    0.824118|    0.011989|
|         472|   -4.727493|   -7.126501|    0.824114|    0.011990|
|         473|   -4.729725|   -7.128405|    0.824110|    0.011990|
|         474|   -4.732265|   -7.130785|    0.824106|    0.011991|
|         475|   -4.735123|   -7.133626|    0.824102|    0.011991|
|         476|   -4.738303|   -7.136902|    0.824098|    0.011991|
|         477|   -4.741804|   -7.140570|    0.824094|    0.011992|
|         478|   -4.745624|   -7.144575|    0.824090|    0.011992|
|         479|   -4.749756|   -7.148846|    0.824087|    0.011993|
|         480|   -4.754192|   -7.153306|    0.824084|    0.011993|
|         481|   -4.758920|   -7.157865|    0.824081|    0.011994|
|         482|   -4.763926|   -7.162428|    0.824078|    0.011994|
|         483|   -4.769194|   -7.166897|    0.824076|    0.011995|
|         484|   -4.774704|   -7.171178|    0.824074|    0.011995|
|         485|   -4.780434|   -7.175182|    0.824072|    0.011996|
|         486|   -4.786356|   -7.178831|    0.824071|    0.011996|
|         487|   -4.792443|   -7.182065|    0.824070|    0.011997|
|         488|   -4.798662|   -7.184841|    0.824069|    0.011997|
|         489|   -4.804977|   -7.187147|    0.824068|    0.011997|
|         490|   -4.811349|   -7.188992|    0.824068|    0.011997|
|         491|   -4.817739|   -7.190410|    0.824068|    0.011998|
|         492|   -4.824101|   -7.191453|    0.824069|    0.011998|
|         493|   -4.830391|   -7.192192|    0.824069|    0.011998|
|         494|   -4.836560|   -7.192713|    0.824070|    0.011998|
|         495|   -4.842559|   -7.193105|    0.824071|    0.011998|
|         496|   -4.848340|   -7.193466|    0.824072|    0.011998|
|         497|   -4.853854|   -7.193888|    0.824073|    0.011998|
|         498|   -4.859052|   -7.194463|    0.824075|    0.011998|
|         499|   -4.863891|   -7.195272|    0.824076|    0.011998|
|         500|   -4.868327|   -7.196385|    0.824078|    0.011998|
|         501|   -4.872326|   -7.197862|    0.824080|    0.011992|
+-----------------------------------------------------------------------+
|Fixed CL Mode                           |Value                         |
+-----------------------------------------------------------------------+
|Current CL                              |0.82408                       |
|Target CL                               |0.824                         |
|Previous AOA                            |2.76206                       |
|Changed AoA by                          |-0.000389929                  |
+-----------------------------------------------------------------------+
+----------------------------------------------------------------+
|  Inner_Iter|    rms[Rho]|     rms[nu]|          CL|          CD|
+----------------------------------------------------------------+
|         502|   -3.602126|   -7.180011|    0.824082|    0.011992|
|         503|   -3.985296|   -7.192417|    0.824083|    0.011991|
|         504|   -4.224516|   -7.198174|    0.824085|    0.011991|
|         505|   -4.298057|   -7.203025|    0.824087|    0.011991|
|         506|   -4.346240|   -7.207846|    0.824089|    0.011990|
|         507|   -4.408123|   -7.212816|    0.824091|    0.011990|
|         508|   -4.482311|   -7.217968|    0.824093|    0.011989|
|         509|   -4.555494|   -7.223307|    0.824094|    0.011989|
|         510|   -4.613836|   -7.228818|    0.824096|    0.011988|
|         511|   -4.653227|   -7.234463|    0.824098|    0.011988|
|         512|   -4.677541|   -7.240199|    0.824099|    0.011987|
|         513|   -4.691081|   -7.245993|    0.824100|    0.011986|
|         514|   -4.697068|   -7.251822|    0.824102|    0.011986|
|         515|   -4.699227|   -7.257654|    0.824103|    0.011985|
|         516|   -4.701449|   -7.263439|    0.824104|    0.011984|
|         517|   -4.706266|   -7.269106|    0.824104|    0.011984|
|         518|   -4.714130|   -7.274581|    0.824105|    0.011983|
|         519|   -4.723858|   -7.279802|    0.824105|    0.011982|
|         520|   -4.733720|   -7.284717|    0.824105|    0.011982|
|         521|   -4.742521|   -7.289279|    0.824105|    0.011981|
|         522|   -4.750075|   -7.293437|    0.824105|    0.011980|
|         523|   -4.756927|   -7.297145|    0.824105|    0.011979|
|         524|   -4.763704|   -7.300364|    0.824104|    0.011979|
|         525|   -4.770676|   -7.303066|    0.824103|    0.011978|
|         526|   -4.777688|   -7.305240|    0.824102|    0.011977|
|         527|   -4.784356|   -7.306893|    0.824101|    0.011977|
|         528|   -4.790296|   -7.308041|    0.824100|    0.011976|
|         529|   -4.795263|   -7.308718|    0.824098|    0.011976|
|         530|   -4.799191|   -7.308968|    0.824096|    0.011975|
|         531|   -4.802186|   -7.308842|    0.824094|    0.011974|
|         532|   -4.804500|   -7.308394|    0.824092|    0.011974|
|         533|   -4.806493|   -7.307680|    0.824090|    0.011973|
|         534|   -4.808562|   -7.306755|    0.824088|    0.011973|
|         535|   -4.811071|   -7.305669|    0.824085|    0.011973|
|         536|   -4.814282|   -7.304468|    0.824083|    0.011972|
|         537|   -4.818321|   -7.303195|    0.824080|    0.011972|
|         538|   -4.823170|   -7.301887|    0.824077|    0.011972|
|         539|   -4.828689|   -7.300580|    0.824074|    0.011972|
|         540|   -4.834648|   -7.299308|    0.824072|    0.011971|
|         541|   -4.840779|   -7.298094|    0.824069|    0.011971|
|         542|   -4.846825|   -7.296953|    0.824066|    0.011971|
|         543|   -4.852595|   -7.295895|    0.824063|    0.011971|
|         544|   -4.858005|   -7.294947|    0.824060|    0.011971|
|         545|   -4.863082|   -7.294146|    0.824057|    0.011972|
|         546|   -4.867953|   -7.293527|    0.824054|    0.011972|
|         547|   -4.872792|   -7.293118|    0.824051|    0.011972|
|         548|   -4.877770|   -7.292939|    0.824048|    0.011972|
|         549|   -4.883013|   -7.293006|    0.824045|    0.011973|
|         550|   -4.888572|   -7.293325|    0.824043|    0.011973|
|         551|   -4.894420|   -7.293895|    0.824040|    0.011974|
|         552|   -4.900464|   -7.294710|    0.824037|    0.011974|
|         553|   -4.906568|   -7.295751|    0.824034|    0.011975|
|         554|   -4.912582|   -7.296996|    0.824032|    0.011976|
|         555|   -4.918368|   -7.298415|    0.824029|    0.011977|
|         556|   -4.923821|   -7.299959|    0.824027|    0.011978|
|         557|   -4.928871|   -7.301580|    0.824024|    0.011979|
|         558|   -4.933488|   -7.303222|    0.824021|    0.011980|
|         559|   -4.937667|   -7.304829|    0.824019|    0.011981|
|         560|   -4.941421|   -7.306342|    0.824016|    0.011982|
|         561|   -4.944764|   -7.307703|    0.824014|    0.011983|
|         562|   -4.947707|   -7.308857|    0.824011|    0.011984|
|         563|   -4.950254|   -7.309763|    0.824009|    0.011985|
|         564|   -4.952401|   -7.310389|    0.824006|    0.011986|
|         565|   -4.954143|   -7.310713|    0.824003|    0.011988|
|         566|   -4.955476|   -7.310715|    0.824001|    0.011989|
|         567|   -4.956403|   -7.310391|    0.823998|    0.011990|
|         568|   -4.956935|   -7.309748|    0.823995|    0.011992|
|         569|   -4.957089|   -7.308811|    0.823993|    0.011993|
|         570|   -4.956896|   -7.307615|    0.823990|    0.011995|
|         571|   -4.956387|   -7.306210|    0.823987|    0.011996|
|         572|   -4.955604|   -7.304647|    0.823985|    0.011997|
|         573|   -4.954586|   -7.302972|    0.823982|    0.011999|
|         574|   -4.953378|   -7.301258|    0.823979|    0.012000|
|         575|   -4.952021|   -7.299572|    0.823977|    0.012002|
|         576|   -4.950560|   -7.297980|    0.823974|    0.012003|
|         577|   -4.949036|   -7.296538|    0.823972|    0.012005|
|         578|   -4.947492|   -7.295291|    0.823969|    0.012006|
|         579|   -4.945966|   -7.294276|    0.823967|    0.012007|
|         580|   -4.944499|   -7.293518|    0.823965|    0.012008|
|         581|   -4.943127|   -7.293030|    0.823962|    0.012010|
|         582|   -4.941884|   -7.292816|    0.823960|    0.012011|
|         583|   -4.940802|   -7.292871|    0.823958|    0.012012|
|         584|   -4.939911|   -7.293179|    0.823956|    0.012013|
|         585|   -4.939239|   -7.293716|    0.823955|    0.012014|
|         586|   -4.938808|   -7.294452|    0.823953|    0.012015|
|         587|   -4.938641|   -7.295350|    0.823951|    0.012016|
|         588|   -4.938756|   -7.296371|    0.823950|    0.012017|
|         589|   -4.939170|   -7.297474|    0.823949|    0.012018|
|         590|   -4.939896|   -7.298615|    0.823948|    0.012019|
|         591|   -4.940945|   -7.299751|    0.823947|    0.012019|
|         592|   -4.942327|   -7.300843|    0.823946|    0.012020|
|         593|   -4.944048|   -7.301856|    0.823945|    0.012021|
|         594|   -4.946110|   -7.302763|    0.823944|    0.012021|
|         595|   -4.948515|   -7.303542|    0.823944|    0.012021|
|         596|   -4.951263|   -7.304181|    0.823943|    0.012022|
|         597|   -4.954348|   -7.304672|    0.823943|    0.012022|
|         598|   -4.957764|   -7.305016|    0.823942|    0.012022|
|         599|   -4.961502|   -7.305219|    0.823942|    0.012022|
|         600|   -4.965549|   -7.305294|    0.823942|    0.012022|
|         601|   -4.969891|   -7.305256|    0.823942|    0.012026|
+-----------------------------------------------------------------------+
|Fixed CL Mode                           |Value                         |
+-----------------------------------------------------------------------+
|Current CL                              |0.823942                      |
|Target CL                               |0.824                         |
|Previous AOA                            |2.76167                       |
|Changed AoA by                          |0.000290207                   |
+-----------------------------------------------------------------------+
+----------------------------------------------------------------+
|  Inner_Iter|    rms[Rho]|     rms[nu]|          CL|          CD|
+----------------------------------------------------------------+
|         602|   -3.729873|   -7.286186|    0.823942|    0.012026|
|         603|   -4.111282|   -7.295336|    0.823942|    0.012026|
|         604|   -4.348689|   -7.297908|    0.823942|    0.012025|
|         605|   -4.423866|   -7.299106|    0.823942|    0.012025|
|         606|   -4.474211|   -7.299774|    0.823942|    0.012025|
|         607|   -4.537959|   -7.300148|    0.823942|    0.012024|
|         608|   -4.613847|   -7.300341|    0.823942|    0.012023|
|         609|   -4.688582|   -7.300430|    0.823942|    0.012023|
|         610|   -4.748177|   -7.300467|    0.823942|    0.012022|
|         611|   -4.788526|   -7.300484|    0.823942|    0.012021|
|         612|   -4.813742|   -7.300499|    0.823942|    0.012020|
|         613|   -4.828346|   -7.300535|    0.823942|    0.012019|
|         614|   -4.835683|   -7.300622|    0.823942|    0.012018|
|         615|   -4.839586|   -7.300781|    0.823942|    0.012017|
|         616|   -4.844079|   -7.301017|    0.823942|    0.012016|
|         617|   -4.851794|   -7.301332|    0.823942|    0.012015|
|         618|   -4.863174|   -7.301726|    0.823942|    0.012014|
|         619|   -4.876846|   -7.302209|    0.823941|    0.012013|
|         620|   -4.890716|   -7.302793|    0.823941|    0.012012|
|         621|   -4.903176|   -7.303490|    0.823941|    0.012010|
|         622|   -4.913779|   -7.304312|    0.823940|    0.012009|
|         623|   -4.923034|   -7.305264|    0.823939|    0.012008|
|         624|   -4.931689|   -7.306353|    0.823939|    0.012007|
|         625|   -4.940165|   -7.307583|    0.823938|    0.012005|
|         626|   -4.948419|   -7.308958|    0.823937|    0.012004|
|         627|   -4.956121|   -7.310479|    0.823937|    0.012003|
|         628|   -4.962894|   -7.312152|    0.823936|    0.012001|
|         629|   -4.968461|   -7.313977|    0.823935|    0.012000|
|         630|   -4.972700|   -7.315944|    0.823934|    0.011999|
|         631|   -4.975643|   -7.318041|    0.823933|    0.011998|
|         632|   -4.977481|   -7.320253|    0.823933|    0.011996|
|         633|   -4.978543|   -7.322562|    0.823932|    0.011995|
|         634|   -4.979238|   -7.324946|    0.823931|    0.011994|
|         635|   -4.979970|   -7.327381|    0.823930|    0.011993|
|         636|   -4.981055|   -7.329843|    0.823930|    0.011991|
|         637|   -4.982677|   -7.332305|    0.823929|    0.011990|
|         638|   -4.984874|   -7.334744|    0.823929|    0.011989|
|         639|   -4.987554|   -7.337135|    0.823929|    0.011988|
|         640|   -4.990533|   -7.339460|    0.823929|    0.011987|
|         641|   -4.993583|   -7.341705|    0.823928|    0.011986|
|         642|   -4.996493|   -7.343859|    0.823929|    0.011985|
|         643|   -4.999120|   -7.345919|    0.823929|    0.011985|
|         644|   -5.001429|   -7.347887|    0.823929|    0.011984|
|         645|   -5.003501|   -7.349771|    0.823930|    0.011983|
|         646|   -5.005502|   -7.351585|    0.823931|    0.011983|
|         647|   -5.007646|   -7.353348|    0.823932|    0.011982|
|         648|   -5.010133|   -7.355086|    0.823933|    0.011982|
|         649|   -5.013116|   -7.356824|    0.823934|    0.011981|
|         650|   -5.016674|   -7.358592|    0.823936|    0.011981|
|         651|   -5.020815|   -7.360424|    0.823937|    0.011981|
|         652|   -5.025488|   -7.362352|    0.823939|    0.011981|
|         653|   -5.030604|   -7.364411|    0.823942|    0.011980|
|         654|   -5.036069|   -7.366632|    0.823944|    0.011980|
|         655|   -5.041799|   -7.369046|    0.823947|    0.011981|
|         656|   -5.047738|   -7.371684|    0.823949|    0.011981|
|         657|   -5.053862|   -7.374571|    0.823952|    0.011981|
|         658|   -5.060177|   -7.377731|    0.823955|    0.011981|
|         659|   -5.066708|   -7.381182|    0.823959|    0.011982|
|         660|   -5.073487|   -7.384939|    0.823962|    0.011982|
|         661|   -5.080545|   -7.389012|    0.823966|    0.011983|
|         662|   -5.087900|   -7.393405|    0.823969|    0.011983|
|         663|   -5.095555|   -7.398115|    0.823973|    0.011984|
|         664|   -5.103498|   -7.403136|    0.823977|    0.011985|
|         665|   -5.111704|   -7.408450|    0.823981|    0.011986|
|         666|   -5.120136|   -7.414039|    0.823985|    0.011987|
|         667|   -5.128751|   -7.419873|    0.823989|    0.011988|
|         668|   -5.137501|   -7.425921|    0.823992|    0.011989|
|         669|   -5.146338|   -7.432142|    0.823996|    0.011990|
|         670|   -5.155206|   -7.438492|    0.824000|    0.011991|
|         671|   -5.164052|   -7.444920|    0.824004|    0.011992|
|         672|   -5.172814|   -7.451374|    0.824007|    0.011993|
|         673|   -5.181430|   -7.457796|    0.824011|    0.011995|
|         674|   -5.189831|   -7.464131|    0.824014|    0.011996|
|         675|   -5.197947|   -7.470324|    0.824017|    0.011997|
|         676|   -5.205706|   -7.476328|    0.824020|    0.011998|
|         677|   -5.213036|   -7.482100|    0.824023|    0.012000|
|         678|   -5.219870|   -7.487608|    0.824025|    0.012001|
|         679|   -5.226148|   -7.492827|    0.824027|    0.012003|
|         680|   -5.231817|   -7.497744|    0.824029|    0.012004|
|         681|   -5.236838|   -7.502359|    0.824031|    0.012005|
|         682|   -5.241185|   -7.506682|    0.824032|    0.012007|
|         683|   -5.244844|   -7.510739|    0.824033|    0.012008|
|         684|   -5.247821|   -7.514565|    0.824034|    0.012009|
|         685|   -5.250135|   -7.518203|    0.824035|    0.012011|
|         686|   -5.251818|   -7.521703|    0.824035|    0.012012|
|         687|   -5.252918|   -7.525120|    0.824035|    0.012013|
|         688|   -5.253492|   -7.528512|    0.824035|    0.012015|
|         689|   -5.253608|   -7.531934|    0.824035|    0.012016|
|         690|   -5.253337|   -7.535442|    0.824034|    0.012017|
|         691|   -5.252758|   -7.539087|    0.824033|    0.012018|
|         692|   -5.251948|   -7.542914|    0.824032|    0.012019|
|         693|   -5.250984|   -7.546964|    0.824031|    0.012020|
|         694|   -5.249943|   -7.551267|    0.824030|    0.012021|
|         695|   -5.248895|   -7.555848|    0.824028|    0.012022|
|         696|   -5.247908|   -7.560722|    0.824027|    0.012023|
|         697|   -5.247045|   -7.565896|    0.824025|    0.012024|
|         698|   -5.246361|   -7.571368|    0.824023|    0.012025|
|         699|   -5.245907|   -7.577129|    0.824021|    0.012026|
|         700|   -5.245729|   -7.583163|    0.824019|    0.012027|
|         701|   -5.245866|   -7.589444|    0.824016|    0.012026|
+-----------------------------------------------------------------------+
|Fixed CL Mode                           |Value                         |
+-----------------------------------------------------------------------+
|Current CL                              |0.824016                      |
|Target CL                               |0.824                         |
|Previous AOA                            |2.76196                       |
|Changed AoA by                          |-9.33521e-05                  |
+-----------------------------------------------------------------------+
+----------------------------------------------------------------+
|  Inner_Iter|    rms[Rho]|     rms[nu]|          CL|          CD|
+----------------------------------------------------------------+
|         702|   -4.221629|   -7.589115|    0.824014|    0.012027|
|         703|   -4.600069|   -7.599221|    0.824012|    0.012027|
|         704|   -4.831344|   -7.606838|    0.824009|    0.012028|
|         705|   -4.901871|   -7.614118|    0.824007|    0.012028|
|         706|   -4.945922|   -7.621365|    0.824004|    0.012028|
|         707|   -4.998857|   -7.628586|    0.824002|    0.012029|
|         708|   -5.057772|   -7.635716|    0.823999|    0.012029|
|         709|   -5.110299|   -7.642679|    0.823996|    0.012029|
|         710|   -5.147358|   -7.649403|    0.823994|    0.012029|
|         711|   -5.169664|   -7.655827|    0.823991|    0.012029|
|         712|   -5.182570|   -7.661911|    0.823989|    0.012029|
|         713|   -5.190091|   -7.667636|    0.823986|    0.012029|
|         714|   -5.194642|   -7.673000|    0.823984|    0.012029|
|         715|   -5.198425|   -7.678005|    0.823981|    0.012029|
|         716|   -5.203527|   -7.682652|    0.823979|    0.012028|
|         717|   -5.211212|   -7.686941|    0.823976|    0.012028|
|         718|   -5.221512|   -7.690875|    0.823974|    0.012028|
|         719|   -5.233449|   -7.694460|    0.823972|    0.012027|
|         720|   -5.245694|   -7.697709|    0.823969|    0.012027|
|         721|   -5.257266|   -7.700635|    0.823967|    0.012026|
|         722|   -5.267891|   -7.703249|    0.823965|    0.012025|
|         723|   -5.277878|   -7.705565|    0.823963|    0.012025|
|         724|   -5.287729|   -7.707596|    0.823961|    0.012024|
|         725|   -5.297807|   -7.709358|    0.823959|    0.012023|
|         726|   -5.308224|   -7.710869|    0.823958|    0.012022|
|         727|   -5.318896|   -7.712150|    0.823956|    0.012021|
|         728|   -5.329641|   -7.713222|    0.823955|    0.012021|
|         729|   -5.340249|   -7.714112|    0.823953|    0.012020|
|         730|   -5.350511|   -7.714846|    0.823952|    0.012019|
|         731|   -5.360250|   -7.715451|    0.823951|    0.012018|
|         732|   -5.369360|   -7.715956|    0.823950|    0.012016|
|         733|   -5.377838|   -7.716394|    0.823949|    0.012015|
|         734|   -5.385788|   -7.716797|    0.823948|    0.012014|
|         735|   -5.393380|   -7.717199|    0.823947|    0.012013|
|         736|   -5.400796|   -7.717631|    0.823946|    0.012012|
|         737|   -5.408171|   -7.718128|    0.823946|    0.012011|
|         738|   -5.415554|   -7.718718|    0.823945|    0.012010|
|         739|   -5.422897|   -7.719431|    0.823945|    0.012009|
|         740|   -5.430060|   -7.720291|    0.823945|    0.012007|
|         741|   -5.436844|   -7.721322|    0.823944|    0.012006|
|         742|   -5.443039|   -7.722544|    0.823944|    0.012005|
|         743|   -5.448475|   -7.723974|    0.823944|    0.012004|
|         744|   -5.453076|   -7.725625|    0.823944|    0.012003|
|         745|   -5.456870|   -7.727508|    0.823944|    0.012002|
|         746|   -5.459987|   -7.729629|    0.823944|    0.012000|
|         747|   -5.462614|   -7.731993|    0.823944|    0.011999|
|         748|   -5.464951|   -7.734601|    0.823944|    0.011998|
|         749|   -5.467168|   -7.737452|    0.823944|    0.011997|
|         750|   -5.469376|   -7.740543|    0.823944|    0.011996|
|         751|   -5.471626|   -7.743869|    0.823945|    0.011995|
|         752|   -5.473917|   -7.747422|    0.823945|    0.011994|
|         753|   -5.476218|   -7.751195|    0.823945|    0.011993|
|         754|   -5.478486|   -7.755176|    0.823945|    0.011992|
|         755|   -5.480691|   -7.759357|    0.823945|    0.011992|
|         756|   -5.482823|   -7.763725|    0.823945|    0.011991|
|         757|   -5.484899|   -7.768271|    0.823945|    0.011990|
|         758|   -5.486955|   -7.772983|    0.823946|    0.011989|
|         759|   -5.489039|   -7.777850|    0.823946|    0.011989|
|         760|   -5.491201|   -7.782863|    0.823946|    0.011988|
|         761|   -5.493487|   -7.788010|    0.823946|    0.011987|
|         762|   -5.495932|   -7.793280|    0.823946|    0.011987|
|         763|   -5.498555|   -7.798662|    0.823946|    0.011986|
|         764|   -5.501363|   -7.804141|    0.823946|    0.011986|
|         765|   -5.504355|   -7.809706|    0.823946|    0.011986|
|         766|   -5.507518|   -7.815342|    0.823946|    0.011985|
|         767|   -5.510835|   -7.821035|    0.823946|    0.011985|
|         768|   -5.514287|   -7.826774|    0.823946|    0.011985|
|         769|   -5.517849|   -7.832541|    0.823946|    0.011985|
|         770|   -5.521496|   -7.838323|    0.823947|    0.011985|
|         771|   -5.525199|   -7.844105|    0.823947|    0.011985|
|         772|   -5.528926|   -7.849871|    0.823947|    0.011985|
|         773|   -5.532642|   -7.855608|    0.823947|    0.011985|
|         774|   -5.536310|   -7.861303|    0.823947|    0.011985|
|         775|   -5.539889|   -7.866947|    0.823948|    0.011985|
|         776|   -5.543336|   -7.872533|    0.823948|    0.011986|
|         777|   -5.546610|   -7.878050|    0.823948|    0.011986|
|         778|   -5.549668|   -7.883496|    0.823949|    0.011987|
|         779|   -5.552471|   -7.888869|    0.823949|    0.011987|
|         780|   -5.554982|   -7.894176|    0.823950|    0.011988|
|         781|   -5.557167|   -7.899426|    0.823950|    0.011988|
|         782|   -5.559001|   -7.904630|    0.823951|    0.011989|
|         783|   -5.560462|   -7.909806|    0.823952|    0.011990|
|         784|   -5.561536|   -7.914969|    0.823952|    0.011990|
|         785|   -5.562216|   -7.920135|    0.823953|    0.011991|
|         786|   -5.562504|   -7.925317|    0.823954|    0.011992|
|         787|   -5.562408|   -7.930524|    0.823955|    0.011993|
|         788|   -5.561946|   -7.935760|    0.823956|    0.011994|
|         789|   -5.561143|   -7.941025|    0.823956|    0.011995|
|         790|   -5.560028|   -7.946310|    0.823957|    0.011995|
|         791|   -5.558637|   -7.951600|    0.823958|    0.011996|
|         792|   -5.557012|   -7.956870|    0.823959|    0.011997|
|         793|   -5.555197|   -7.962091|    0.823960|    0.011998|
|         794|   -5.553235|   -7.967220|    0.823961|    0.012000|
|         795|   -5.551175|   -7.972212|    0.823961|    0.012001|
|         796|   -5.549061|   -7.977018|    0.823962|    0.012002|
|         797|   -5.546937|   -7.981583|    0.823963|    0.012003|
|         798|   -5.544846|   -7.985854|    0.823963|    0.012004|
|         799|   -5.542826|   -7.989782|    0.823964|    0.012005|
|         800|   -5.540911|   -7.993323|    0.823964|    0.012006|
|         801|   -5.539133|   -7.996441|    0.823965|    0.012009|
+-----------------------------------------------------------------------+
|Fixed CL Mode                           |Value                         |
+-----------------------------------------------------------------------+
|Current CL                              |0.823965                      |
|Target CL                               |0.824                         |
|Previous AOA                            |2.76187                       |
|Changed AoA by                          |0.000177719                   |
+-----------------------------------------------------------------------+
+----------------------------------------------------------------+
|  Inner_Iter|    rms[Rho]|     rms[nu]|          CL|          CD|
+----------------------------------------------------------------+
|         802|   -3.943490|   -7.868595|    0.823965|    0.012010|
|         803|   -4.326984|   -7.926852|    0.823966|    0.012011|
|         804|   -4.568227|   -7.948207|    0.823966|    0.012012|
|         805|   -4.645218|   -7.960736|    0.823966|    0.012013|
|         806|   -4.697669|   -7.969604|    0.823966|    0.012014|
|         807|   -4.765658|   -7.976178|    0.823966|    0.012015|
|         808|   -4.849169|   -7.981044|    0.823966|    0.012016|
|         809|   -4.935438|   -7.984640|    0.823966|    0.012017|
|         810|   -5.008725|   -7.987297|    0.823966|    0.012018|
|         811|   -5.061691|   -7.989181|    0.823966|    0.012019|
|         812|   -5.096402|   -7.990421|    0.823965|    0.012019|
|         813|   -5.116712|   -7.991238|    0.823965|    0.012020|
|         814|   -5.126228|   -7.991903|    0.823965|    0.012021|
|         815|   -5.130176|   -7.992605|    0.823964|    0.012021|
|         816|   -5.134432|   -7.993414|    0.823964|    0.012022|
|         817|   -5.142957|   -7.994334|    0.823963|    0.012023|
|         818|   -5.156660|   -7.995378|    0.823962|    0.012023|
|         819|   -5.173930|   -7.996599|    0.823962|    0.012024|
|         820|   -5.192039|   -7.998080|    0.823961|    0.012024|
|         821|   -5.208784|   -7.999883|    0.823960|    0.012024|
|         822|   -5.223515|   -8.002032|    0.823959|    0.012025|
|         823|   -5.236951|   -8.004499|    0.823958|    0.012025|
|         824|   -5.250178|   -8.007231|    0.823957|    0.012025|
|         825|   -5.263777|   -8.010164|    0.823956|    0.012025|
|         826|   -5.277582|   -8.013236|    0.823955|    0.012025|
|         827|   -5.290931|   -8.016394|    0.823954|    0.012025|
|         828|   -5.303048|   -8.019592|    0.823953|    0.012025|
|         829|   -5.313317|   -8.022794|    0.823952|    0.012025|
|         830|   -5.321405|   -8.025962|    0.823951|    0.012025|
|         831|   -5.327296|   -8.029056|    0.823950|    0.012025|
|         832|   -5.331299|   -8.032040|    0.823949|    0.012025|
|         833|   -5.333996|   -8.034868|    0.823947|    0.012024|
|         834|   -5.336124|   -8.037477|    0.823946|    0.012024|
|         835|   -5.338395|   -8.039811|    0.823945|    0.012024|
|         836|   -5.341352|   -8.041792|    0.823944|    0.012023|
|         837|   -5.345277|   -8.043350|    0.823943|    0.012023|
|         838|   -5.350170|   -8.044405|    0.823942|    0.012023|
|         839|   -5.355778|   -8.044882|    0.823941|    0.012022|
|         840|   -5.361662|   -8.044720|    0.823940|    0.012022|
|         841|   -5.367288|   -8.043870|    0.823939|    0.012021|
|         842|   -5.372148|   -8.042304|    0.823938|    0.012020|
|         843|   -5.375890|   -8.040011|    0.823937|    0.012020|
|         844|   -5.378411|   -8.037004|    0.823937|    0.012019|
|         845|   -5.379877|   -8.033311|    0.823936|    0.012019|
|         846|   -5.380660|   -8.028978|    0.823935|    0.012018|
|         847|   -5.381226|   -8.024061|    0.823935|    0.012017|
|         848|   -5.382011|   -8.018628|    0.823934|    0.012016|
|         849|   -5.383333|   -8.012769|    0.823934|    0.012016|
|         850|   -5.385350|   -8.006573|    0.823934|    0.012015|
|         851|   -5.388066|   -8.000135|    0.823934|    0.012014|
|         852|   -5.391363|   -7.993552|    0.823934|    0.012013|
|         853|   -5.395057|   -7.986920|    0.823934|    0.012013|
|         854|   -5.398951|   -7.980337|    0.823934|    0.012012|
|         855|   -5.402880|   -7.973905|    0.823935|    0.012011|
|         856|   -5.406737|   -7.967721|    0.823935|    0.012010|
|         857|   -5.410489|   -7.961879|    0.823936|    0.012010|
|         858|   -5.414160|   -7.956471|    0.823937|    0.012009|
|         859|   -5.417816|   -7.951576|    0.823937|    0.012008|
|         860|   -5.421535|   -7.947275|    0.823938|    0.012008|
|         861|   -5.425389|   -7.943636|    0.823940|    0.012007|
|         862|   -5.429427|   -7.940724|    0.823941|    0.012006|
|         863|   -5.433672|   -7.938594|    0.823942|    0.012006|
|         864|   -5.438117|   -7.937295|    0.823944|    0.012005|
|         865|   -5.442735|   -7.936866|    0.823945|    0.012004|
|         866|   -5.447488|   -7.937332|    0.823947|    0.012004|
|         867|   -5.452327|   -7.938712|    0.823949|    0.012003|
|         868|   -5.457204|   -7.941010|    0.823950|    0.012002|
|         869|   -5.462074|   -7.944217|    0.823952|    0.012002|
|         870|   -5.466891|   -7.948308|    0.823954|    0.012001|
|         871|   -5.471610|   -7.953240|    0.823956|    0.012001|
|         872|   -5.476187|   -7.958951|    0.823958|    0.012000|
|         873|   -5.480576|   -7.965355|    0.823960|    0.012000|
|         874|   -5.484730|   -7.972346|    0.823962|    0.012000|
|         875|   -5.488600|   -7.979792|    0.823964|    0.011999|
|         876|   -5.492139|   -7.987537|    0.823965|    0.011999|
|         877|   -5.495304|   -7.995403|    0.823967|    0.011999|
|         878|   -5.498055|   -8.003195|    0.823969|    0.011998|
|         879|   -5.500359|   -8.010704|    0.823970|    0.011998|
|         880|   -5.502195|   -8.017724|    0.823972|    0.011998|
|         881|   -5.503547|   -8.024054|    0.823973|    0.011998|
|         882|   -5.504413|   -8.029522|    0.823975|    0.011997|
|         883|   -5.504799|   -8.033992|    0.823976|    0.011997|
|         884|   -5.504723|   -8.037376|    0.823977|    0.011997|
|         885|   -5.504210|   -8.039645|    0.823978|    0.011997|
|         886|   -5.503294|   -8.040830|    0.823979|    0.011997|
|         887|   -5.502016|   -8.041018|    0.823980|    0.011997|
|         888|   -5.500422|   -8.040341|    0.823981|    0.011997|
|         889|   -5.498560|   -8.038969|    0.823982|    0.011997|
|         890|   -5.496483|   -8.037089|    0.823982|    0.011997|
|         891|   -5.494243|   -8.034899|    0.823983|    0.011997|
|         892|   -5.491890|   -8.032589|    0.823983|    0.011997|
|         893|   -5.489475|   -8.030336|    0.823983|    0.011998|
|         894|   -5.487044|   -8.028296|    0.823983|    0.011998|
|         895|   -5.484641|   -8.026601|    0.823983|    0.011998|
|         896|   -5.482306|   -8.025356|    0.823983|    0.011998|
|         897|   -5.480073|   -8.024638|    0.823983|    0.011998|
|         898|   -5.477976|   -8.024501|    0.823983|    0.011999|
|         899|   -5.476041|   -8.024970|    0.823983|    0.011999|
|         900|   -5.474292|   -8.026051|    0.823983|    0.011999|
|         901|   -5.472750|   -8.027727|    0.823982|    0.012001|
+-----------------------------------------------------------------------+
|Fixed CL Mode                           |Value                         |
+-----------------------------------------------------------------------+
|Current CL                              |0.823982                      |
|Target CL                               |0.824                         |
|Previous AOA                            |2.76204                       |
[...]
|        5298|   -6.046536|   -7.933695|    0.824242|    0.012013|
|        5299|   -6.053174|   -7.937237|    0.824242|    0.012013|
|        5300|   -6.059356|   -7.940838|    0.824242|    0.012012|
|        5301|   -6.065052|   -7.944509|    0.824243|    0.012012|
|        5302|   -6.070245|   -7.948257|    0.824243|    0.012012|
|        5303|   -6.074933|   -7.952086|    0.824243|    0.012012|
|        5304|   -6.079126|   -7.955998|    0.824243|    0.012012|
|        5305|   -6.082847|   -7.959993|    0.824243|    0.012012|
|        5306|   -6.086130|   -7.964068|    0.824243|    0.012012|
|        5307|   -6.089019|   -7.968219|    0.824243|    0.012012|
|        5308|   -6.091566|   -7.972442|    0.824244|    0.012012|
|        5309|   -6.093829|   -7.976733|    0.824244|    0.012012|
|        5310|   -6.095869|   -7.981087|    0.824244|    0.012012|
|        5311|   -6.097748|   -7.985501|    0.824244|    0.012012|
|        5312|   -6.099528|   -7.989971|    0.824244|    0.012012|
|        5313|   -6.101268|   -7.994495|    0.824244|    0.012012|
|        5314|   -6.103026|   -7.999072|    0.824245|    0.012012|
|        5315|   -6.104853|   -8.003702|    0.824245|    0.012012|
|        5316|   -6.106796|   -8.008385|    0.824245|    0.012012|
|        5317|   -6.108896|   -8.013124|    0.824245|    0.012012|
|        5318|   -6.111187|   -8.017920|    0.824245|    0.012012|
|        5319|   -6.113696|   -8.022776|    0.824246|    0.012012|
|        5320|   -6.116445|   -8.027696|    0.824246|    0.012012|
|        5321|   -6.119447|   -8.032682|    0.824246|    0.012012|
|        5322|   -6.122709|   -8.037735|    0.824246|    0.012012|
|        5323|   -6.126232|   -8.042857|    0.824246|    0.012012|
|        5324|   -6.130010|   -8.048047|    0.824247|    0.012012|
|        5325|   -6.134031|   -8.053305|    0.824247|    0.012012|
|        5326|   -6.138274|   -8.058627|    0.824247|    0.012013|
|        5327|   -6.142717|   -8.064010|    0.824247|    0.012013|
|        5328|   -6.147328|   -8.069450|    0.824248|    0.012013|
|        5329|   -6.152073|   -8.074940|    0.824248|    0.012013|
|        5330|   -6.156912|   -8.080476|    0.824248|    0.012013|
|        5331|   -6.161803|   -8.086050|    0.824248|    0.012013|
|        5332|   -6.166701|   -8.091655|    0.824249|    0.012013|
|        5333|   -6.171559|   -8.097283|    0.824249|    0.012013|
|        5334|   -6.176330|   -8.102928|    0.824249|    0.012013|
|        5335|   -6.180971|   -8.108582|    0.824249|    0.012013|
|        5336|   -6.185439|   -8.114239|    0.824249|    0.012013|
|        5337|   -6.189696|   -8.119894|    0.824250|    0.012013|
|        5338|   -6.193711|   -8.125543|    0.824250|    0.012014|
|        5339|   -6.197458|   -8.131183|    0.824250|    0.012014|
|        5340|   -6.200919|   -8.136812|    0.824250|    0.012014|
|        5341|   -6.204085|   -8.142431|    0.824251|    0.012014|
|        5342|   -6.206957|   -8.148040|    0.824251|    0.012014|
|        5343|   -6.209543|   -8.153643|    0.824251|    0.012014|
|        5344|   -6.211860|   -8.159244|    0.824251|    0.012014|
|        5345|   -6.213934|   -8.164846|    0.824252|    0.012014|
|        5346|   -6.215797|   -8.170458|    0.824252|    0.012014|
|        5347|   -6.217485|   -8.176084|    0.824252|    0.012014|
|        5348|   -6.219040|   -8.181734|    0.824252|    0.012014|
|        5349|   -6.220507|   -8.187414|    0.824252|    0.012014|
|        5350|   -6.221931|   -8.193133|    0.824253|    0.012014|
|        5351|   -6.223359|   -8.198898|    0.824253|    0.012014|
|        5352|   -6.224836|   -8.204717|    0.824253|    0.012015|
|        5353|   -6.226405|   -8.210596|    0.824253|    0.012015|
|        5354|   -6.228107|   -8.216542|    0.824254|    0.012015|
|        5355|   -6.229980|   -8.222561|    0.824254|    0.012015|
|        5356|   -6.232057|   -8.228657|    0.824254|    0.012015|
|        5357|   -6.234367|   -8.234835|    0.824254|    0.012015|
|        5358|   -6.236936|   -8.241096|    0.824254|    0.012015|
|        5359|   -6.239784|   -8.247443|    0.824254|    0.012015|
|        5360|   -6.242926|   -8.253877|    0.824255|    0.012015|
|        5361|   -6.246373|   -8.260399|    0.824255|    0.012015|
|        5362|   -6.250132|   -8.267008|    0.824255|    0.012015|
|        5363|   -6.254202|   -8.273703|    0.824255|    0.012015|
|        5364|   -6.258579|   -8.280480|    0.824255|    0.012015|
|        5365|   -6.263255|   -8.287334|    0.824255|    0.012015|
|        5366|   -6.268215|   -8.294263|    0.824255|    0.012015|
|        5367|   -6.273441|   -8.301264|    0.824256|    0.012015|
|        5368|   -6.278908|   -8.308330|    0.824256|    0.012015|
|        5369|   -6.284587|   -8.315460|    0.824256|    0.012015|
|        5370|   -6.290445|   -8.322647|    0.824256|    0.012015|
|        5371|   -6.296446|   -8.329887|    0.824256|    0.012015|
|        5372|   -6.302548|   -8.337174|    0.824256|    0.012015|
|        5373|   -6.308706|   -8.344505|    0.824256|    0.012015|
|        5374|   -6.314873|   -8.351874|    0.824256|    0.012015|
|        5375|   -6.321000|   -8.359278|    0.824256|    0.012015|
|        5376|   -6.327038|   -8.366713|    0.824257|    0.012015|
|        5377|   -6.332937|   -8.374175|    0.824257|    0.012015|
|        5378|   -6.338648|   -8.381662|    0.824257|    0.012015|
|        5379|   -6.344125|   -8.389172|    0.824257|    0.012015|
|        5380|   -6.349327|   -8.396703|    0.824257|    0.012015|
|        5381|   -6.354217|   -8.404255|    0.824257|    0.012014|
|        5382|   -6.358765|   -8.411825|    0.824257|    0.012014|
|        5383|   -6.362945|   -8.419413|    0.824257|    0.012014|
|        5384|   -6.366741|   -8.427018|    0.824258|    0.012014|
|        5385|   -6.370145|   -8.434639|    0.824258|    0.012014|
|        5386|   -6.373153|   -8.442273|    0.824258|    0.012014|
|        5387|   -6.375771|   -8.449916|    0.824258|    0.012014|
|        5388|   -6.378012|   -8.457563|    0.824258|    0.012014|
|        5389|   -6.379892|   -8.465207|    0.824258|    0.012014|
|        5390|   -6.381433|   -8.472839|    0.824259|    0.012014|
|        5391|   -6.382659|   -8.480446|    0.824259|    0.012014|
|        5392|   -6.383600|   -8.488014|    0.824259|    0.012014|
|        5393|   -6.384281|   -8.495526|    0.824259|    0.012014|
|        5394|   -6.384733|   -8.502960|    0.824259|    0.012013|
|        5395|   -6.384981|   -8.510293|    0.824260|    0.012013|
|        5396|   -6.385052|   -8.517499|    0.824260|    0.012013|
|        5397|   -6.384970|   -8.524551|    0.824260|    0.012013|
|        5398|   -6.384756|   -8.531418|    0.824260|    0.012013|
|        5399|   -6.384429|   -8.538082|    0.824261|    0.012013|
|        5400|   -6.384005|   -8.544511|    0.824261|    0.012013|
|        5401|   -6.383498|   -8.550668|    0.824261|    0.012013|
|        5402|   -6.382919|   -8.556521|    0.824261|    0.012013|
|        5403|   -6.382276|   -8.562042|    0.824262|    0.012013|
|        5404|   -6.381577|   -8.567210|    0.824262|    0.012013|
|        5405|   -6.380828|   -8.572008|    0.824262|    0.012012|
|        5406|   -6.380034|   -8.576426|    0.824262|    0.012012|
|        5407|   -6.379196|   -8.580459|    0.824263|    0.012012|
|        5408|   -6.378318|   -8.584110|    0.824263|    0.012012|
|        5409|   -6.377404|   -8.587386|    0.824263|    0.012012|
|        5410|   -6.376454|   -8.590303|    0.824264|    0.012012|
|        5411|   -6.375471|   -8.592881|    0.824264|    0.012012|
|        5412|   -6.374457|   -8.595143|    0.824264|    0.012012|
|        5413|   -6.373416|   -8.597119|    0.824264|    0.012012|
|        5414|   -6.372350|   -8.598837|    0.824265|    0.012012|
|        5415|   -6.371262|   -8.600330|    0.824265|    0.012012|
|        5416|   -6.370158|   -8.601629|    0.824265|    0.012011|
|        5417|   -6.369040|   -8.602766|    0.824265|    0.012011|
|        5418|   -6.367915|   -8.603770|    0.824266|    0.012011|
|        5419|   -6.366788|   -8.604672|    0.824266|    0.012011|
|        5420|   -6.365665|   -8.605495|    0.824266|    0.012011|
|        5421|   -6.364554|   -8.606257|    0.824266|    0.012011|
|        5422|   -6.363462|   -8.606975|    0.824267|    0.012011|
|        5423|   -6.362397|   -8.607664|    0.824267|    0.012011|
|        5424|   -6.361370|   -8.608334|    0.824267|    0.012011|
|        5425|   -6.360390|   -8.608995|    0.824267|    0.012011|
|        5426|   -6.359468|   -8.609652|    0.824267|    0.012011|
|        5427|   -6.358616|   -8.610311|    0.824268|    0.012011|
|        5428|   -6.357846|   -8.610972|    0.824268|    0.012011|
|        5429|   -6.357173|   -8.611638|    0.824268|    0.012011|
|        5430|   -6.356609|   -8.612304|    0.824268|    0.012011|
|        5431|   -6.356170|   -8.612968|    0.824269|    0.012011|
|        5432|   -6.355870|   -8.613632|    0.824269|    0.012011|
|        5433|   -6.355725|   -8.614297|    0.824269|    0.012011|
|        5434|   -6.355749|   -8.614963|    0.824269|    0.012011|
|        5435|   -6.355959|   -8.615634|    0.824269|    0.012011|
|        5436|   -6.356368|   -8.616314|    0.824270|    0.012011|
|        5437|   -6.356992|   -8.617005|    0.824270|    0.012011|
|        5438|   -6.357844|   -8.617714|    0.824270|    0.012011|
|        5439|   -6.358935|   -8.618447|    0.824270|    0.012011|
|        5440|   -6.360279|   -8.619208|    0.824270|    0.012011|
|        5441|   -6.361884|   -8.620006|    0.824270|    0.012011|
|        5442|   -6.363759|   -8.620847|    0.824271|    0.012011|
|        5443|   -6.365909|   -8.621738|    0.824271|    0.012011|
|        5444|   -6.368338|   -8.622686|    0.824271|    0.012011|
|        5445|   -6.371049|   -8.623696|    0.824271|    0.012011|
|        5446|   -6.374041|   -8.624774|    0.824271|    0.012011|
|        5447|   -6.377309|   -8.625923|    0.824271|    0.012011|
|        5448|   -6.380846|   -8.627148|    0.824272|    0.012011|
|        5449|   -6.384645|   -8.628448|    0.824272|    0.012012|
|        5450|   -6.388691|   -8.629827|    0.824272|    0.012012|
|        5451|   -6.392968|   -8.631282|    0.824272|    0.012012|
|        5452|   -6.397458|   -8.632812|    0.824272|    0.012012|
|        5453|   -6.402137|   -8.634414|    0.824272|    0.012012|
|        5454|   -6.406980|   -8.636084|    0.824272|    0.012012|
|        5455|   -6.411957|   -8.637818|    0.824273|    0.012012|
|        5456|   -6.417037|   -8.639621|    0.824273|    0.012012|
|        5457|   -6.422183|   -8.641488|    0.824273|    0.012012|
|        5458|   -6.427360|   -8.643407|    0.824273|    0.012012|
|        5459|   -6.432526|   -8.645369|    0.824273|    0.012012|
|        5460|   -6.437642|   -8.647366|    0.824273|    0.012012|
|        5461|   -6.442664|   -8.649388|    0.824273|    0.012013|
|        5462|   -6.447552|   -8.651431|    0.824273|    0.012013|
|        5463|   -6.452264|   -8.653485|    0.824273|    0.012013|
|        5464|   -6.456759|   -8.655546|    0.824273|    0.012013|
|        5465|   -6.461000|   -8.657609|    0.824273|    0.012013|
|        5466|   -6.464953|   -8.659668|    0.824274|    0.012013|
|        5467|   -6.468587|   -8.661719|    0.824274|    0.012013|
|        5468|   -6.471878|   -8.663759|    0.824274|    0.012013|
|        5469|   -6.474805|   -8.665783|    0.824274|    0.012013|
|        5470|   -6.477355|   -8.667792|    0.824274|    0.012013|
|        5471|   -6.479521|   -8.669786|    0.824274|    0.012013|
|        5472|   -6.481301|   -8.671760|    0.824274|    0.012013|
|        5473|   -6.482701|   -8.673712|    0.824274|    0.012013|
|        5474|   -6.483732|   -8.675636|    0.824274|    0.012014|
|        5475|   -6.484411|   -8.677529|    0.824274|    0.012014|
|        5476|   -6.484760|   -8.679386|    0.824274|    0.012014|
|        5477|   -6.484805|   -8.681202|    0.824274|    0.012014|
|        5478|   -6.484574|   -8.682971|    0.824274|    0.012014|
|        5479|   -6.484100|   -8.684689|    0.824274|    0.012014|
|        5480|   -6.483416|   -8.686350|    0.824274|    0.012014|
|        5481|   -6.482557|   -8.687948|    0.824274|    0.012014|
|        5482|   -6.481556|   -8.689478|    0.824274|    0.012014|
|        5483|   -6.480449|   -8.690933|    0.824274|    0.012014|
|        5484|   -6.479268|   -8.692307|    0.824274|    0.012014|
|        5485|   -6.478044|   -8.693595|    0.824274|    0.012014|
|        5486|   -6.476809|   -8.694792|    0.824274|    0.012014|
|        5487|   -6.475590|   -8.695890|    0.824274|    0.012014|
|        5488|   -6.474412|   -8.696887|    0.824274|    0.012014|
|        5489|   -6.473300|   -8.697779|    0.824274|    0.012014|
|        5490|   -6.472273|   -8.698561|    0.824274|    0.012014|
|        5491|   -6.471351|   -8.699233|    0.824274|    0.012014|
|        5492|   -6.470551|   -8.699793|    0.824274|    0.012014|
|        5493|   -6.469885|   -8.700240|    0.824274|    0.012014|
|        5494|   -6.469367|   -8.700576|    0.824274|    0.012014|
|        5495|   -6.469005|   -8.700801|    0.824274|    0.012014|
|        5496|   -6.468810|   -8.700920|    0.824274|    0.012014|
|        5497|   -6.468785|   -8.700935|    0.824274|    0.012014|
|        5498|   -6.468938|   -8.700850|    0.824274|    0.012014|
|        5499|   -6.469271|   -8.700669|    0.824274|    0.012000|
+-----------------------------------------------------------------------+
|Fixed CL Mode (Finite Difference)       |Value                         |
+-----------------------------------------------------------------------+
|Delta CL / Delta AoA                    |0.274157                      |
|Delta CD / Delta CL                     |0.0207936                     |
|Delta CMz / Delta CL                    |0.0321                        |
+-----------------------------------------------------------------------+
Writing Flow Meta-Data file: flow.meta

----------------------------- Solver Exit -------------------------------

Maximum number of iterations reached (ITER = 5500) before convergence.
+-----------------------------------------------------------------------+
|      Convergence Field     |     Value    |   Criterion  |  Converged |
+-----------------------------------------------------------------------+
|                    rms[Rho]|      -6.46927|         < -12|          No|
+-----------------------------------------------------------------------+
-------------------------------------------------------------------------

--------------------------- Finalizing Solver ---------------------------
Deleted CNumerics container.
Deleted CIntegration container.
Deleted CSolver container.
Deleted CIteration container.
Deleted CInterface container.
Deleted CGeometry container.
Deleted CFreeFormDefBox class.
Deleted CSurfaceMovement class.
Deleted CVolumetricMovement class.
Deleted CConfig container.
Deleted nInst container.
Deleted COutput class.
-------------------------------------------------------------------------

------------------------- Exit Success (SU2_CFD) ------------------------


-------------------------------------------------------------------------
|    ___ _   _ ___                                                      |
|   / __| | | |_  )   Release 8.0.0 "Harrier"                           |
|   \__ \ |_| |/ /                                                      |
|   |___/\___//___|   Suite (Solution Exporting Code)                   |
|                                                                       |
-------------------------------------------------------------------------
| SU2 Project Website: https://su2code.github.io                        |
|                                                                       |
| The SU2 Project is maintained by the SU2 Foundation                   |
| (http://su2foundation.org)                                            |
-------------------------------------------------------------------------
| Copyright 2012-2023, SU2 Contributors                                 |
|                                                                       |
| SU2 is free software; you can redistribute it and/or                  |
| modify it under the terms of the GNU Lesser General Public            |
| License as published by the Free Software Foundation; either          |
| version 2.1 of the License, or (at your option) any later version.    |
|                                                                       |
| SU2 is distributed in the hope that it will be useful,                |
| but WITHOUT ANY WARRANTY; without even the implied warranty of        |
| MERCHANTABILITY or FITNESS FOR A PARTICULAR PURPOSE. See the GNU      |
| Lesser General Public License for more details.                       |
|                                                                       |
| You should have received a copy of the GNU Lesser General Public      |
| License along with SU2. If not, see <http://www.gnu.org/licenses/>.   |
-------------------------------------------------------------------------

----------------- Physical Case Definition ( Zone 0 ) -------------------
Input mesh file name: mesh_RAE2822_turb_deform.su2

-------------------- Output Information ( Zone 0 ) ----------------------
The tabular file format is CSV (.csv).
Flow variables file name: flow.

------------- Config File Boundary Information ( Zone 0 ) ---------------
+-----------------------------------------------------------------------+
|                        Marker Type|                        Marker Name|
+-----------------------------------------------------------------------+
|                          Far-field|                           FARFIELD|
+-----------------------------------------------------------------------+
|                     Heat flux wall|                            AIRFOIL|
+-----------------------------------------------------------------------+
Two dimensional problem.
13937 grid points before partitioning.
22842 volume elements before partitioning.
2 surface markers.
192 boundary elements in index 0 (Marker = AIRFOIL).
40 boundary elements in index 1 (Marker = FARFIELD).
Executing the partitioning functions.
Building the graph adjacency structure.
Calling ParMETIS... graph partitioning complete (831 edge cuts).
Distributing ParMETIS coloring.
Rebalancing vertices.
Rebalancing volume element connectivity.
Rebalancing markers and surface elements.
14875 vertices including ghost points. 
23674 interior elements including halo cells. 
18780 triangles.
4894 quadrilaterals.
Establishing MPI communication patterns.
Identify vertices.
Storing a mapping from global to local point index.

------------------------- Solution Postprocessing -----------------------
Reading and storing the solution from restart_flow.
Volume output fields: COORDINATES, SOLUTION
  Info: Ignoring the following screen output fields:
  RMS_DENSITY, RMS_NU_TILDE, LIFT, DRAG
Screen output fields: INNER_ITER
  Info: Ignoring the following history output groups:
  RMS_RES, AERO_COEFF
History output group(s): ITER
Warning: No (valid) fields chosen for convergence monitoring. Convergence monitoring inactive.
Warning: No (valid) fields chosen for time convergence monitoring. Time convergence monitoring inactive.
|Paraview                           |flow.vtu                           |
|Paraview surface                   |surface_flow.vtu                   |
|CSV file                           |surface_flow.csv                   |

------------------------- Finalize Solver -------------------------
Deleted CGeometry container.
Deleted CSolver class.
Deleted CConfig container.
Deleted COutput class.

Completed in 0.014802 seconds on 6 cores.

------------------------- Exit Success (SU2_SOL) ------------------------

