
-------------------------------------------------------------------------
|    ___ _   _ ___                                                      |
|   / __| | | |_  )   Release 8.0.0 "Harrier"                           |
|   \__ \ |_| |/ /                                                      |
|   |___/\___//___|   Suite (Computational Fluid Dynamics Code)         |
|                                                                       |
-------------------------------------------------------------------------
| SU2 Project Website: https://su2code.github.io                        |
|                                                                       |
| The SU2 Project is maintained by the SU2 Foundation                   |
| (http://su2foundation.org)                                            |
-------------------------------------------------------------------------
| Copyright 2012-2023, SU2 Contributors                                 |
|                                                                       |
| SU2 is free software; you can redistribute it and/or                  |
| modify it under the terms of the GNU Lesser General Public            |
| License as published by the Free Software Foundation; either          |
| version 2.1 of the License, or (at your option) any later version.    |
|                                                                       |
| SU2 is distributed in the hope that it will be useful,                |
| but WITHOUT ANY WARRANTY; without even the implied warranty of        |
| MERCHANTABILITY or FITNESS FOR A PARTICULAR PURPOSE. See the GNU      |
| Lesser General Public License for more details.                       |
|                                                                       |
| You should have received a copy of the GNU Lesser General Public      |
| License along with SU2. If not, see <http://www.gnu.org/licenses/>.   |
-------------------------------------------------------------------------

Parsing config file for zone 0

----------------- Physical Case Definition ( Zone 0 ) -------------------
Compressible RANS equations.
Turbulence model: Spalart-Allmaras-noft2
Hybrid RANS/LES: No Hybrid RANS/LES
Mach number: 0.734.
Angle of attack (AoA): 2.31 deg, and angle of sideslip (AoS): 0 deg.
Reynolds number: 6.5e+06. Reference length 1.
Fixed CL mode, target value: 0.824.
Reading and writing binary SU2 native restart files.
Read flow solution from: solution_flow.dat.
Dimensional simulation.
The reference area is 1 m^2.
The semi-span will be computed using the max y(3D) value.
The reference length is 1 m.
Reference origin for moment evaluation is (0.25, 0, 0).
Surface(s) where the force coefficients are evaluated: AIRFOIL.

Surface(s) plotted in the output file: AIRFOIL.
Surface(s) affected by the design variables: AIRFOIL.
Input mesh file name: mesh_RAE2822_turb_deform.su2

--------------- Space Numerical Integration ( Zone 0 ) ------------------
Jameson-Schmidt-Turkel scheme (2nd order in space) for the flow inviscid terms.
JST viscous coefficients (2nd & 4th): 0.5, 0.02.
The method includes a grid stretching correction (p = 0.3).
Scalar upwind solver for the turbulence model.
First order integration in space.
Average of gradients with correction (viscous flow terms).
Average of gradients with correction (viscous turbulence terms).
Gradient for viscous and source terms: inverse-distance weighted Least-Squares.

--------------- Time Numerical Integration  ( Zone 0 ) ------------------
Local time stepping (steady state simulation).
Euler implicit method for the flow equations.
FGMRES is used for solving the linear system.
Using a ILU(0) preconditioning.
Convergence criteria of the linear solver: 1e-06.
Max number of linear iterations: 10.
No CFL adaptation.
Courant-Friedrichs-Lewy number:       10
Euler implicit time integration for the turbulence model.

------------------ Convergence Criteria  ( Zone 0 ) ---------------------
Maximum number of solver subiterations: 5500.
Begin convergence monitoring at iteration 10.
Residual minimum value: 1e-12.
Cauchy series min. value: 1e-06.
Number of Cauchy elements: 100.
Begin windowed time average at iteration 0.

-------------------- Output Information ( Zone 0 ) ----------------------
File writing frequency: 
+------------------------------------+
|                     File| Frequency|
+------------------------------------+
|                  RESTART|     10000|
|                 PARAVIEW|     10000|
|         SURFACE_PARAVIEW|     10000|
|              SURFACE_CSV|     10000|
+------------------------------------+
Writing the convergence history file every 1 inner iterations.
Writing the screen convergence history every 1 inner iterations.
The tabular file format is CSV (.csv).
Convergence history file name: history_direct.
Forces breakdown file name: forces_breakdown.dat.
Surface file name: surface_flow.
Volume file name: flow.
Restart file name: restart_flow.dat.

------------- Config File Boundary Information ( Zone 0 ) ---------------
+-----------------------------------------------------------------------+
|                        Marker Type|                        Marker Name|
+-----------------------------------------------------------------------+
|                          Far-field|                           FARFIELD|
+-----------------------------------------------------------------------+
|                     Heat flux wall|                            AIRFOIL|
+-----------------------------------------------------------------------+

-------------------- Output Preprocessing ( Zone 0 ) --------------------

WARNING: SURFACE_PRESSURE_DROP can only be computed for at least 2 surfaces (outlet, inlet, ...)

Screen output fields: INNER_ITER, RMS_DENSITY, RMS_NU_TILDE, LIFT, DRAG
History output group(s): ITER, RMS_RES, AERO_COEFF
Convergence field(s): RMS_DENSITY
Warning: No (valid) fields chosen for time convergence monitoring. Time convergence monitoring inactive.
Volume output fields: COORDINATES, SOLUTION, PRIMITIVE

------------------- Geometry Preprocessing ( Zone 0 ) -------------------
Two dimensional problem.
13937 grid points before partitioning.
22842 volume elements before partitioning.
2 surface markers.
192 boundary elements in index 0 (Marker = AIRFOIL).
40 boundary elements in index 1 (Marker = FARFIELD).
Executing the partitioning functions.
Building the graph adjacency structure.
Calling ParMETIS... graph partitioning complete (831 edge cuts).
Distributing ParMETIS coloring.
Rebalancing vertices.
Rebalancing volume element connectivity.
Rebalancing markers and surface elements.
14875 vertices including ghost points. 
23674 interior elements including halo cells. 
18780 triangles.
4894 quadrilaterals.
Establishing MPI communication patterns.
Setting point connectivity.
Renumbering points (Reverse Cuthill McKee Ordering).
Recomputing point connectivity.
Setting element connectivity.
Checking the numerical grid orientation.
All volume elements are correctly orientend.
All surface elements are correctly orientend.
Identifying edges and vertices.
Setting the control volume structure.
Area of the computational grid: 32209.9.
Searching for the closest normal neighbors to the surfaces.
Storing a mapping from global to local point index.
Compute the surface curvature.
Max K: 221.645. Mean K: 8.5911. Standard deviation K: 28.6989.
Checking for periodicity.
Computing mesh quality statistics for the dual control volumes.
+--------------------------------------------------------------+
|           Mesh Quality Metric|        Minimum|        Maximum|
+--------------------------------------------------------------+
|    Orthogonality Angle (deg.)|        74.2079|        89.9996|
|     CV Face Area Aspect Ratio|        1.00103|        3359.45|
|           CV Sub-Volume Ratio|         1.0007|        1221.42|
+--------------------------------------------------------------+
Finding max control volume width.
Communicating number of neighbors.
Wetted area = 2.02125 m.
Area projection in the x-plane = 0.129171 m, y-plane = 0.995873 m.
Max. coordinate in the x-direction = 1 m, y-direction = 0.0612969 m.
Min. coordinate in the x-direction = 0 m, y-direction = -0.0636441 m.
Computing wall distances.

-------------------- Solver Preprocessing ( Zone 0 ) --------------------
WARNING: AoA in the solution file (2.7624 deg.) +
         AoA offset in mesh file (0 deg.) = 2.7624 deg.
WARNING: SU2 will use the dCD/dCL provided in the direct solution file: 0.0203569.
WARNING: SU2 will use the dCMz/dCL provided in the direct solution file: 0.0119649.
Viscous flow: Computing pressure using the ideal gas law
based on the free-stream temperature and a density computed
from the Reynolds number.
Force coefficients computed using free-stream values.

-- Models:
+------------------------------------------------------------------------------+
|          Viscosity Model|        Conductivity Model|              Fluid Model|
+------------------------------------------------------------------------------+
|               SUTHERLAND|          CONSTANT_PRANDTL|             STANDARD_AIR|
+------------------------------------------------------------------------------+
-- Fluid properties:
+------------------------------------------------------------------------------+
|                  Name|    Dim. value|    Ref. value|      Unit|Non-dim. value|
+------------------------------------------------------------------------------+
|        Ref. Viscosity|     1.716e-05|             1|   N.s/m^2|     1.716e-05|
|      Sutherland Temp.|        273.15|             1|         K|        273.15|
|     Sutherland Const.|         110.4|             1|         K|         110.4|
+------------------------------------------------------------------------------+
|        Prandtl (Lam.)|             -|             -|         -|          0.71|
|       Prandtl (Turb.)|             -|             -|         -|           0.9|
+------------------------------------------------------------------------------+
|          Gas Constant|       287.058|             1|  N.m/kg.K|       287.058|
|      Spec. Heat Ratio|             -|             -|         -|           1.4|
+------------------------------------------------------------------------------+
-- Initial and free-stream conditions:
+------------------------------------------------------------------------------+
|                  Name|    Dim. value|    Ref. value|      Unit|Non-dim. value|
+------------------------------------------------------------------------------+
|       Static Pressure|         38515|             1|        Pa|         38515|
|               Density|      0.465631|             1|    kg/m^3|      0.465631|
|           Temperature|        288.15|             1|         K|        288.15|
|          Total Energy|        237984|             1|   m^2/s^2|        237984|
|            Velocity-X|       249.488|             1|       m/s|       249.488|
|            Velocity-Y|       12.0379|             1|       m/s|       12.0379|
|    Velocity Magnitude|       249.778|             1|       m/s|       249.778|
+------------------------------------------------------------------------------+
|             Viscosity|    1.7893e-05|             1|   N.s/m^2|    1.7893e-05|
|          Conductivity|             -|             1|   W/m^2.K|             -|
|     Turb. Kin. Energy|       233.959|             1|   m^2/s^2|       233.959|
|     Spec. Dissipation|        608834|             1|       1/s|        608834|
+------------------------------------------------------------------------------+
|           Mach Number|             -|             -|         -|         0.734|
|       Reynolds Number|             -|             -|         -|       6.5e+06|
+------------------------------------------------------------------------------+
Initialize Jacobian structure (Navier-Stokes). MG level: 0.
Initialize Jacobian structure (SA model).

------------------- Numerics Preprocessing ( Zone 0 ) -------------------

----------------- Integration Preprocessing ( Zone 0 ) ------------------

------------------- Iteration Preprocessing ( Zone 0 ) ------------------
Euler/Navier-Stokes/RANS fluid iteration.

------------------------------ Begin Solver -----------------------------

Simulation Run using the Single-zone Driver
WARNING: SU2 was not compiled for an AVX-capable architecture. Performance could be better,
         see https://su2code.github.io/docs_v7/Build-SU2-Linux-MacOS/#compiler-optimizations
+----------------------------------------------------------------+
|  Inner_Iter|    rms[Rho]|     rms[nu]|          CL|          CD|
+----------------------------------------------------------------+
|           0|   -4.128546|   -5.525931|    0.824603|    0.011984|
|           1|   -4.186135|   -5.630831|    0.824912|    0.012113|
|           2|   -4.247029|   -5.761338|    0.824991|    0.012188|
|           3|   -4.291723|   -5.917441|    0.824936|    0.012221|
|           4|   -4.320636|   -6.085809|    0.824839|    0.012227|
|           5|   -4.337192|   -6.207732|    0.824755|    0.012222|
|           6|   -4.344353|   -6.222126|    0.824708|    0.012218|
|           7|   -4.345088|   -6.183543|    0.824701|    0.012219|
|           8|   -4.341967|   -6.146809|    0.824725|    0.012228|
|           9|   -4.336542|   -6.117906|    0.824771|    0.012245|
|          10|   -4.329421|   -6.089908|    0.824830|    0.012270|
|          11|   -4.320833|   -6.059790|    0.824898|    0.012301|
|          12|   -4.311101|   -6.031451|    0.824970|    0.012337|
|          13|   -4.300718|   -6.010845|    0.825039|    0.012377|
|          14|   -4.290214|   -6.002105|    0.825103|    0.012419|
|          15|   -4.280011|   -6.006784|    0.825155|    0.012463|
|          16|   -4.270410|   -6.024204|    0.825192|    0.012508|
|          17|   -4.261656|   -6.051561|    0.825211|    0.012551|
|          18|   -4.254006|   -6.083524|    0.825209|    0.012593|
|          19|   -4.247749|   -6.112049|    0.825186|    0.012631|
|          20|   -4.243154|   -6.128195|    0.825141|    0.012665|
|          21|   -4.240392|   -6.127649|    0.825075|    0.012695|
|          22|   -4.239473|   -6.113568|    0.824991|    0.012719|
|          23|   -4.240217|   -6.093638|    0.824891|    0.012739|
|          24|   -4.242287|   -6.074923|    0.824777|    0.012754|
|          25|   -4.245248|   -6.061543|    0.824654|    0.012764|
|          26|   -4.248646|   -6.054916|    0.824524|    0.012768|
|          27|   -4.252075|   -6.054540|    0.824390|    0.012769|
|          28|   -4.255215|   -6.058745|    0.824256|    0.012764|
|          29|   -4.257837|   -6.065225|    0.824123|    0.012756|
|          30|   -4.259778|   -6.071589|    0.823993|    0.012743|
|          31|   -4.260915|   -6.075969|    0.823868|    0.012727|
|          32|   -4.261151|   -6.077536|    0.823749|    0.012706|
|          33|   -4.260420|   -6.076640|    0.823635|    0.012683|
|          34|   -4.258710|   -6.074493|    0.823528|    0.012657|
|          35|   -4.256079|   -6.072651|    0.823427|    0.012627|
|          36|   -4.252660|   -6.072533|    0.823331|    0.012596|
|          37|   -4.248651|   -6.075205|    0.823240|    0.012563|
|          38|   -4.244274|   -6.081290|    0.823154|    0.012528|
|          39|   -4.239743|   -6.091015|    0.823073|    0.012492|
|          40|   -4.235234|   -6.104135|    0.822995|    0.012455|
|          41|   -4.230866|   -6.120129|    0.822922|    0.012419|
|          42|   -4.226698|   -6.138064|    0.822853|    0.012383|
|          43|   -4.222735|   -6.156624|    0.822787|    0.012347|
|          44|   -4.218945|   -6.174153|    0.822726|    0.012312|
|          45|   -4.215264|   -6.188830|    0.822669|    0.012279|
|          46|   -4.211614|   -6.198936|    0.822618|    0.012246|
|          47|   -4.207908|   -6.203395|    0.822573|    0.012216|
|          48|   -4.204059|   -6.202068|    0.822534|    0.012186|
|          49|   -4.199987|   -6.195795|    0.822502|    0.012158|
|          50|   -4.195622|   -6.186106|    0.822477|    0.012131|
|          51|   -4.190913|   -6.174766|    0.822461|    0.012105|
|          52|   -4.185834|   -6.163420|    0.822454|    0.012080|
|          53|   -4.180385|   -6.153313|    0.822457|    0.012057|
|          54|   -4.174593|   -6.145317|    0.822468|    0.012034|
|          55|   -4.168510|   -6.139937|    0.822490|    0.012012|
|          56|   -4.162203|   -6.137356|    0.822521|    0.011990|
|          57|   -4.155751|   -6.137545|    0.822561|    0.011969|
|          58|   -4.149233|   -6.140322|    0.822610|    0.011949|
|          59|   -4.142720|   -6.145359|    0.822667|    0.011930|
|          60|   -4.136275|   -6.152252|    0.822731|    0.011911|
|          61|   -4.129941|   -6.160557|    0.822802|    0.011894|
|          62|   -4.123751|   -6.169821|    0.822877|    0.011877|
|          63|   -4.117721|   -6.179613|    0.822957|    0.011861|
|          64|   -4.111858|   -6.189512|    0.823038|    0.011846|
|          65|   -4.106165|   -6.199153|    0.823120|    0.011832|
|          66|   -4.100643|   -6.208230|    0.823203|    0.011819|
|          67|   -4.095293|   -6.216494|    0.823283|    0.011807|
|          68|   -4.090123|   -6.223768|    0.823361|    0.011795|
|          69|   -4.085143|   -6.229941|    0.823435|    0.011785|
|          70|   -4.080369|   -6.234974|    0.823505|    0.011776|
|          71|   -4.075818|   -6.238924|    0.823569|    0.011768|
|          72|   -4.071506|   -6.241903|    0.823628|    0.011760|
|          73|   -4.067449|   -6.244069|    0.823682|    0.011753|
|          74|   -4.063655|   -6.245599|    0.823729|    0.011747|
|          75|   -4.060126|   -6.246665|    0.823771|    0.011741|
|          76|   -4.056855|   -6.247387|    0.823807|    0.011736|
|          77|   -4.053828|   -6.247835|    0.823838|    0.011732|
|          78|   -4.051023|   -6.248022|    0.823865|    0.011728|
|          79|   -4.048415|   -6.247894|    0.823887|    0.011725|
|          80|   -4.045974|   -6.247401|    0.823905|    0.011722|
|          81|   -4.043673|   -6.246490|    0.823920|    0.011719|
|          82|   -4.041486|   -6.245143|    0.823933|    0.011717|
|          83|   -4.039395|   -6.243397|    0.823943|    0.011716|
|          84|   -4.037392|   -6.241358|    0.823952|    0.011715|
|          85|   -4.035477|   -6.239187|    0.823960|    0.011714|
|          86|   -4.033661|   -6.237079|    0.823966|    0.011715|
|          87|   -4.031966|   -6.235237|    0.823973|    0.011715|
|          88|   -4.030422|   -6.233859|    0.823979|    0.011717|
|          89|   -4.029063|   -6.233106|    0.823986|    0.011719|
|          90|   -4.027930|   -6.233091|    0.823993|    0.011722|
|          91|   -4.027064|   -6.233885|    0.824000|    0.011726|
|          92|   -4.026504|   -6.235505|    0.824009|    0.011731|
|          93|   -4.026288|   -6.237922|    0.824019|    0.011736|
|          94|   -4.026446|   -6.241066|    0.824030|    0.011742|
|          95|   -4.027001|   -6.244895|    0.824042|    0.011750|
|          96|   -4.027968|   -6.249285|    0.824056|    0.011758|
|          97|   -4.029353|   -6.254134|    0.824071|    0.011767|
|          98|   -4.031150|   -6.259331|    0.824088|    0.011777|
|          99|   -4.033342|   -6.264820|    0.824106|    0.011787|
|         100|   -4.035901|   -6.270485|    0.824126|    0.011799|
|         101|   -4.038787|   -6.276227|    0.824146|    0.011802|
+-----------------------------------------------------------------------+
|Fixed CL Mode                           |Value                         |
+-----------------------------------------------------------------------+
|Current CL                              |0.824146                      |
|Target CL                               |0.824                         |
|Previous AOA                            |2.7624                        |
|Changed AoA by                          |-0.000627987                  |
+-----------------------------------------------------------------------+
+----------------------------------------------------------------+
|  Inner_Iter|    rms[Rho]|     rms[nu]|          CL|          CD|
+----------------------------------------------------------------+
|         102|   -3.383090|   -6.281034|    0.824168|    0.011815|
|         103|   -3.709013|   -6.287207|    0.824190|    0.011829|
|         104|   -3.854290|   -6.293068|    0.824213|    0.011843|
|         105|   -3.895860|   -6.298825|    0.824235|    0.011858|
|         106|   -3.928419|   -6.304503|    0.824258|    0.011873|
|         107|   -3.964993|   -6.310112|    0.824280|    0.011889|
|         108|   -4.001070|   -6.315667|    0.824301|    0.011905|
|         109|   -4.030313|   -6.321183|    0.824321|    0.011921|
|         110|   -4.049932|   -6.326676|    0.824339|    0.011936|
|         111|   -4.061183|   -6.332153|    0.824356|    0.011952|
|         112|   -4.066522|   -6.337620|    0.824371|    0.011968|
|         113|   -4.067814|   -6.343072|    0.824383|    0.011983|
|         114|   -4.066397|   -6.348504|    0.824393|    0.011997|
|         115|   -4.063472|   -6.353903|    0.824401|    0.012011|
|         116|   -4.060077|   -6.359250|    0.824406|    0.012025|
|         117|   -4.056866|   -6.364528|    0.824409|    0.012038|
|         118|   -4.054021|   -6.369707|    0.824409|    0.012050|
|         119|   -4.051389|   -6.374747|    0.824408|    0.012061|
|         120|   -4.048718|   -6.379618|    0.824404|    0.012072|
|         121|   -4.045846|   -6.384306|    0.824398|    0.012082|
|         122|   -4.042777|   -6.388787|    0.824391|    0.012091|
|         123|   -4.039640|   -6.393064|    0.824382|    0.012099|
|         124|   -4.036608|   -6.397160|    0.824372|    0.012107|
|         125|   -4.033838|   -6.401110|    0.824362|    0.012114|
|         126|   -4.031448|   -6.404930|    0.824351|    0.012120|
|         127|   -4.029509|   -6.408666|    0.824340|    0.012126|
|         128|   -4.028049|   -6.412364|    0.824329|    0.012131|
|         129|   -4.027057|   -6.416073|    0.824318|    0.012136|
|         130|   -4.026481|   -6.419830|    0.824308|    0.012141|
|         131|   -4.026239|   -6.423658|    0.824299|    0.012145|
|         132|   -4.026230|   -6.427566|    0.824290|    0.012149|
|         133|   -4.026347|   -6.431583|    0.824283|    0.012152|
|         134|   -4.026492|   -6.435644|    0.824276|    0.012156|
|         135|   -4.026576|   -6.439703|    0.824270|    0.012159|
|         136|   -4.026525|   -6.443724|    0.824266|    0.012163|
|         137|   -4.026279|   -6.447674|    0.824262|    0.012166|
|         138|   -4.025794|   -6.451466|    0.824259|    0.012169|
|         139|   -4.025033|   -6.455041|    0.824256|    0.012172|
|         140|   -4.023973|   -6.458324|    0.824255|    0.012175|
|         141|   -4.022602|   -6.461277|    0.824253|    0.012178|
|         142|   -4.020918|   -6.463872|    0.824252|    0.012181|
|         143|   -4.018932|   -6.466116|    0.824251|    0.012184|
|         144|   -4.016665|   -6.468015|    0.824249|    0.012187|
|         145|   -4.014149|   -6.469568|    0.824247|    0.012189|
|         146|   -4.011425|   -6.470821|    0.824245|    0.012191|
|         147|   -4.008533|   -6.471846|    0.824241|    0.012193|
|         148|   -4.005517|   -6.472691|    0.824237|    0.012195|
|         149|   -4.002414|   -6.473427|    0.824232|    0.012196|
|         150|   -3.999259|   -6.474124|    0.824225|    0.012197|
|         151|   -3.996079|   -6.474855|    0.824218|    0.012197|
|         152|   -3.992897|   -6.475686|    0.824209|    0.012197|
|         153|   -3.989732|   -6.476679|    0.824199|    0.012197|
|         154|   -3.986600|   -6.477852|    0.824187|    0.012196|
|         155|   -3.983517|   -6.479211|    0.824174|    0.012195|
|         156|   -3.980498|   -6.480756|    0.824161|    0.012193|
|         157|   -3.977558|   -6.482473|    0.824146|    0.012191|
|         158|   -3.974713|   -6.484334|    0.824130|    0.012188|
|         159|   -3.971978|   -6.486290|    0.824114|    0.012185|
|         160|   -3.969369|   -6.488284|    0.824096|    0.012181|
|         161|   -3.966900|   -6.490282|    0.824079|    0.012177|
|         162|   -3.964586|   -6.492222|    0.824061|    0.012173|
|         163|   -3.962437|   -6.494036|    0.824044|    0.012168|
|         164|   -3.960463|   -6.495670|    0.824026|    0.012163|
|         165|   -3.958674|   -6.497082|    0.824009|    0.012158|
|         166|   -3.957074|   -6.498249|    0.823992|    0.012152|
|         167|   -3.955665|   -6.499166|    0.823976|    0.012147|
|         168|   -3.954446|   -6.499847|    0.823961|    0.012141|
|         169|   -3.953415|   -6.500297|    0.823947|    0.012135|
|         170|   -3.952562|   -6.500561|    0.823934|    0.012129|
|         171|   -3.951879|   -6.500691|    0.823923|    0.012122|
|         172|   -3.951353|   -6.500740|    0.823913|    0.012116|
|         173|   -3.950970|   -6.500768|    0.823904|    0.012110|
|         174|   -3.950716|   -6.500839|    0.823897|    0.012103|
|         175|   -3.950577|   -6.501014|    0.823891|    0.012097|
|         176|   -3.950539|   -6.501333|    0.823887|    0.012091|
|         177|   -3.950592|   -6.501844|    0.823884|    0.012085|
|         178|   -3.950727|   -6.502583|    0.823883|    0.012078|
|         179|   -3.950942|   -6.503568|    0.823884|    0.012072|
|         180|   -3.951236|   -6.504811|    0.823885|    0.012066|
|         181|   -3.951614|   -6.506311|    0.823888|    0.012060|
|         182|   -3.952088|   -6.508069|    0.823893|    0.012054|
|         183|   -3.952671|   -6.510074|    0.823898|    0.012048|
|         184|   -3.953382|   -6.512291|    0.823905|    0.012042|
|         185|   -3.954242|   -6.514692|    0.823912|    0.012036|
|         186|   -3.955273|   -6.517238|    0.823921|    0.012031|
|         187|   -3.956498|   -6.519888|    0.823930|    0.012025|
|         188|   -3.957938|   -6.522599|    0.823940|    0.012019|
|         189|   -3.959613|   -6.525328|    0.823950|    0.012014|
|         190|   -3.961539|   -6.528047|    0.823961|    0.012008|
|         191|   -3.963722|   -6.530720|    0.823972|    0.012003|
|         192|   -3.966167|   -6.533326|    0.823984|    0.011997|
|         193|   -3.968867|   -6.535850|    0.823995|    0.011992|
|         194|   -3.971807|   -6.538278|    0.824007|    0.011986|
|         195|   -3.974962|   -6.540617|    0.824019|    0.011981|
|         196|   -3.978297|   -6.542877|    0.824031|    0.011976|
|         197|   -3.981767|   -6.545073|    0.824043|    0.011971|
|         198|   -3.985321|   -6.547235|    0.824055|    0.011966|
|         199|   -3.988896|   -6.549396|    0.824067|    0.011961|
|         200|   -3.992427|   -6.551586|    0.824079|    0.011957|
|         201|   -3.995843|   -6.553837|    0.824091|    0.011947|
+-----------------------------------------------------------------------+
|Fixed CL Mode                           |Value                         |
+-----------------------------------------------------------------------+
|Current CL                              |0.824091                      |
|Target CL                               |0.824                         |
|Previous AOA                            |2.76177                       |
|Changed AoA by                          |-0.000394297                  |
+-----------------------------------------------------------------------+
+----------------------------------------------------------------+
|  Inner_Iter|    rms[Rho]|     rms[nu]|          CL|          CD|
+----------------------------------------------------------------+
|         202|   -3.566886|   -6.554765|    0.824102|    0.011942|
|         203|   -3.841494|   -6.557694|    0.824114|    0.011938|
|         204|   -3.932280|   -6.560418|    0.824125|    0.011934|
|         205|   -3.949418|   -6.563317|    0.824137|    0.011931|
|         206|   -3.961504|   -6.566452|    0.824148|    0.011928|
|         207|   -3.975590|   -6.569828|    0.824159|    0.011924|
|         208|   -3.988935|   -6.573433|    0.824169|    0.011922|
|         209|   -3.998925|   -6.577258|    0.824180|    0.011919|
|         210|   -4.005070|   -6.581291|    0.824190|    0.011917|
|         211|   -4.008356|   -6.585510|    0.824200|    0.011915|
|         212|   -4.009931|   -6.589889|    0.824210|    0.011914|
|         213|   -4.010549|   -6.594402|    0.824220|    0.011913|
|         214|   -4.010673|   -6.599021|    0.824229|    0.011912|
|         215|   -4.010667|   -6.603715|    0.824238|    0.011912|
|         216|   -4.010843|   -6.608453|    0.824247|    0.011912|
|         217|   -4.011428|   -6.613203|    0.824255|    0.011913|
|         218|   -4.012539|   -6.617934|    0.824263|    0.011913|
|         219|   -4.014211|   -6.622618|    0.824271|    0.011915|
|         220|   -4.016449|   -6.627230|    0.824278|    0.011916|
|         221|   -4.019279|   -6.631748|    0.824285|    0.011918|
|         222|   -4.022757|   -6.636162|    0.824291|    0.011920|
|         223|   -4.026955|   -6.640467|    0.824297|    0.011923|
|         224|   -4.031939|   -6.644664|    0.824303|    0.011926|
|         225|   -4.037754|   -6.648760|    0.824308|    0.011929|
|         226|   -4.044422|   -6.652771|    0.824313|    0.011932|
|         227|   -4.051947|   -6.656722|    0.824317|    0.011936|
|         228|   -4.060323|   -6.660642|    0.824321|    0.011940|
|         229|   -4.069538|   -6.664566|    0.824325|    0.011944|
|         230|   -4.079570|   -6.668531|    0.824329|    0.011949|
|         231|   -4.090388|   -6.672583|    0.824332|    0.011953|
|         232|   -4.101951|   -6.676773|    0.824336|    0.011958|
|         233|   -4.114204|   -6.681147|    0.824339|    0.011963|
|         234|   -4.127078|   -6.685748|    0.824342|    0.011968|
|         235|   -4.140489|   -6.690620|    0.824344|    0.011973|
|         236|   -4.154328|   -6.695805|    0.824347|    0.011979|
|         237|   -4.168468|   -6.701336|    0.824350|    0.011984|
|         238|   -4.182755|   -6.707238|    0.824353|    0.011990|
|         239|   -4.197015|   -6.713528|    0.824355|    0.011995|
|         240|   -4.211052|   -6.720218|    0.824358|    0.012001|
|         241|   -4.224661|   -6.727307|    0.824361|    0.012007|
|         242|   -4.237632|   -6.734777|    0.824363|    0.012012|
|         243|   -4.249768|   -6.742598|    0.824366|    0.012018|
|         244|   -4.260890|   -6.750730|    0.824369|    0.012023|
|         245|   -4.270859|   -6.759124|    0.824371|    0.012029|
|         246|   -4.279575|   -6.767728|    0.824374|    0.012034|
|         247|   -4.286989|   -6.776476|    0.824376|    0.012040|
|         248|   -4.293100|   -6.785299|    0.824379|    0.012045|
|         249|   -4.297949|   -6.794120|    0.824381|    0.012050|
|         250|   -4.301616|   -6.802861|    0.824383|    0.012055|
|         251|   -4.304208|   -6.811449|    0.824384|    0.012060|
|         252|   -4.305854|   -6.819815|    0.824385|    0.012065|
|         253|   -4.306696|   -6.827893|    0.824386|    0.012069|
|         254|   -4.306881|   -6.835633|    0.824386|    0.012074|
|         255|   -4.306558|   -6.842999|    0.824386|    0.012078|
|         256|   -4.305870|   -6.849966|    0.824385|    0.012082|
|         257|   -4.304949|   -6.856537|    0.824384|    0.012086|
|         258|   -4.303917|   -6.862726|    0.824382|    0.012090|
|         259|   -4.302881|   -6.868568|    0.824379|    0.012093|
|         260|   -4.301934|   -6.874107|    0.824376|    0.012096|
|         261|   -4.301153|   -6.879397|    0.824371|    0.012099|
|         262|   -4.300603|   -6.884496|    0.824366|    0.012102|
|         263|   -4.300335|   -6.889447|    0.824360|    0.012104|
|         264|   -4.300390|   -6.894291|    0.824354|    0.012106|
|         265|   -4.300799|   -6.899059|    0.824347|    0.012108|
|         266|   -4.301588|   -6.903778|    0.824339|    0.012110|
|         267|   -4.302773|   -6.908454|    0.824330|    0.012111|
|         268|   -4.304367|   -6.913074|    0.824321|    0.012112|
|         269|   -4.306379|   -6.917605|    0.824311|    0.012113|
|         270|   -4.308813|   -6.921995|    0.824300|    0.012114|
|         271|   -4.311670|   -6.926154|    0.824290|    0.012114|
|         272|   -4.314949|   -6.929998|    0.824278|    0.012114|
|         273|   -4.318645|   -6.933426|    0.824267|    0.012114|
|         274|   -4.322751|   -6.936315|    0.824255|    0.012113|
|         275|   -4.327258|   -6.938544|    0.824243|    0.012113|
|         276|   -4.332155|   -6.940006|    0.824231|    0.012112|
|         277|   -4.337426|   -6.940614|    0.824219|    0.012110|
|         278|   -4.343057|   -6.940315|    0.824208|    0.012109|
|         279|   -4.349029|   -6.939104|    0.824196|    0.012107|
|         280|   -4.355321|   -6.937005|    0.824185|    0.012105|
|         281|   -4.361910|   -6.934061|    0.824174|    0.012103|
|         282|   -4.368768|   -6.930366|    0.824163|    0.012101|
|         283|   -4.375867|   -6.926040|    0.824153|    0.012099|
|         284|   -4.383176|   -6.921219|    0.824143|    0.012096|
|         285|   -4.390659|   -6.916061|    0.824134|    0.012093|
|         286|   -4.398280|   -6.910732|    0.824126|    0.012090|
|         287|   -4.405999|   -6.905392|    0.824118|    0.012087|
|         288|   -4.413775|   -6.900194|    0.824111|    0.012084|
|         289|   -4.421566|   -6.895281|    0.824105|    0.012081|
|         290|   -4.429328|   -6.890779|    0.824099|    0.012077|
|         291|   -4.437019|   -6.886796|    0.824095|    0.012074|
|         292|   -4.444596|   -6.883407|    0.824090|    0.012070|
|         293|   -4.452021|   -6.880667|    0.824087|    0.012066|
|         294|   -4.459255|   -6.878631|    0.824084|    0.012063|
|         295|   -4.466265|   -6.877340|    0.824082|    0.012059|
|         296|   -4.473021|   -6.876820|    0.824081|    0.012055|
|         297|   -4.479498|   -6.877082|    0.824080|    0.012051|
|         298|   -4.485678|   -6.878122|    0.824080|    0.012047|
|         299|   -4.491544|   -6.879928|    0.824081|    0.012043|
|         300|   -4.497086|   -6.882476|    0.824082|    0.012039|
|         301|   -4.502298|   -6.885734|    0.824084|    0.012029|
+-----------------------------------------------------------------------+
|Fixed CL Mode                           |Value                         |
+-----------------------------------------------------------------------+
|Current CL                              |0.824084                      |
|Target CL                               |0.824                         |
|Previous AOA                            |2.76137                       |
|Changed AoA by                          |-0.000409972                  |
+-----------------------------------------------------------------------+
+----------------------------------------------------------------+
|  Inner_Iter|    rms[Rho]|     rms[nu]|          CL|          CD|
+----------------------------------------------------------------+
|         302|   -3.577233|   -6.883323|    0.824086|    0.012025|
|         303|   -3.944415|   -6.890689|    0.824089|    0.012021|
|         304|   -4.149570|   -6.896610|    0.824092|    0.012017|
|         305|   -4.208133|   -6.902641|    0.824095|    0.012013|
|         306|   -4.247728|   -6.908951|    0.824099|    0.012010|
|         307|   -4.295986|   -6.915535|    0.824103|    0.012006|
|         308|   -4.349227|   -6.922346|    0.824108|    0.012002|
|         309|   -4.397201|   -6.929336|    0.824113|    0.011999|
|         310|   -4.432868|   -6.936437|    0.824118|    0.011995|
|         311|   -4.456407|   -6.943584|    0.824123|    0.011992|
|         312|   -4.471277|   -6.950719|    0.824129|    0.011989|
|         313|   -4.480151|   -6.957795|    0.824135|    0.011985|
|         314|   -4.484775|   -6.964768|    0.824141|    0.011982|
|         315|   -4.486951|   -6.971600|    0.824147|    0.011979|
|         316|   -4.488513|   -6.978263|    0.824153|    0.011977|
|         317|   -4.490696|   -6.984737|    0.824160|    0.011974|
|         318|   -4.493789|   -6.991023|    0.824167|    0.011972|
|         319|   -4.497346|   -6.997119|    0.824174|    0.011969|
|         320|   -4.500700|   -7.003042|    0.824181|    0.011967|
|         321|   -4.503417|   -7.008809|    0.824188|    0.011965|
|         322|   -4.505447|   -7.014445|    0.824195|    0.011963|
|         323|   -4.506989|   -7.019971|    0.824202|    0.011961|
|         324|   -4.508254|   -7.025420|    0.824210|    0.011960|
|         325|   -4.509333|   -7.030821|    0.824218|    0.011958|
|         326|   -4.510190|   -7.036211|    0.824226|    0.011957|
|         327|   -4.510743|   -7.041619|    0.824233|    0.011956|
|         328|   -4.510929|   -7.047071|    0.824241|    0.011955|
|         329|   -4.510737|   -7.052592|    0.824250|    0.011954|
|         330|   -4.510202|   -7.058199|    0.824258|    0.011954|
|         331|   -4.509390|   -7.063898|    0.824266|    0.011953|
|         332|   -4.508391|   -7.069683|    0.824275|    0.011953|
|         333|   -4.507308|   -7.075537|    0.824283|    0.011953|
|         334|   -4.506248|   -7.081435|    0.824291|    0.011953|
|         335|   -4.505305|   -7.087343|    0.824300|    0.011953|
|         336|   -4.504552|   -7.093202|    0.824308|    0.011953|
|         337|   -4.504027|   -7.098949|    0.824317|    0.011954|
|         338|   -4.503743|   -7.104520|    0.824325|    0.011954|
|         339|   -4.503686|   -7.109846|    0.824333|    0.011955|
|         340|   -4.503830|   -7.114855|    0.824341|    0.011955|
|         341|   -4.504145|   -7.119475|    0.824349|    0.011956|
|         342|   -4.504608|   -7.123640|    0.824357|    0.011957|
|         343|   -4.505211|   -7.127294|    0.824365|    0.011958|
|         344|   -4.505968|   -7.130394|    0.824372|    0.011960|
|         345|   -4.506913|   -7.132909|    0.824379|    0.011961|
|         346|   -4.508093|   -7.134825|    0.824386|    0.011962|
|         347|   -4.509562|   -7.136141|    0.824392|    0.011964|
|         348|   -4.511367|   -7.136877|    0.824398|    0.011965|
|         349|   -4.513542|   -7.137062|    0.824404|    0.011967|
|         350|   -4.516106|   -7.136746|    0.824409|    0.011969|
|         351|   -4.519061|   -7.135989|    0.824414|    0.011970|
|         352|   -4.522396|   -7.134860|    0.824418|    0.011972|
|         353|   -4.526091|   -7.133433|    0.824422|    0.011974|
|         354|   -4.530126|   -7.131788|    0.824425|    0.011976|
|         355|   -4.534479|   -7.130009|    0.824428|    0.011977|
|         356|   -4.539134|   -7.128174|    0.824430|    0.011979|
|         357|   -4.544080|   -7.126364|    0.824431|    0.011981|
|         358|   -4.549307|   -7.124655|    0.824432|    0.011983|
|         359|   -4.554810|   -7.123115|    0.824432|    0.011985|
|         360|   -4.560580|   -7.121808|    0.824432|    0.011987|
|         361|   -4.566603|   -7.120792|    0.824431|    0.011989|
|         362|   -4.572864|   -7.120117|    0.824429|    0.011991|
|         363|   -4.579338|   -7.119827|    0.824427|    0.011993|
|         364|   -4.585995|   -7.119958|    0.824424|    0.011995|
|         365|   -4.592799|   -7.120540|    0.824421|    0.011996|
|         366|   -4.599709|   -7.121593|    0.824417|    0.011998|
|         367|   -4.606677|   -7.123126|    0.824412|    0.012000|
|         368|   -4.613654|   -7.125144|    0.824407|    0.012002|
|         369|   -4.620587|   -7.127641|    0.824402|    0.012004|
|         370|   -4.627420|   -7.130603|    0.824396|    0.012005|
|         371|   -4.634096|   -7.134003|    0.824389|    0.012007|
|         372|   -4.640555|   -7.137806|    0.824383|    0.012009|
|         373|   -4.646741|   -7.141964|    0.824376|    0.012010|
|         374|   -4.652597|   -7.146423|    0.824368|    0.012012|
|         375|   -4.658070|   -7.151122|    0.824361|    0.012013|
|         376|   -4.663113|   -7.155989|    0.824353|    0.012015|
|         377|   -4.667684|   -7.160941|    0.824345|    0.012016|
|         378|   -4.671750|   -7.165892|    0.824337|    0.012018|
|         379|   -4.675291|   -7.170755|    0.824329|    0.012019|
|         380|   -4.678294|   -7.175436|    0.824320|    0.012020|
|         381|   -4.680759|   -7.179847|    0.824312|    0.012021|
|         382|   -4.682699|   -7.183903|    0.824303|    0.012022|
|         383|   -4.684135|   -7.187530|    0.824295|    0.012023|
|         384|   -4.685100|   -7.190661|    0.824287|    0.012024|
|         385|   -4.685635|   -7.193245|    0.824278|    0.012025|
|         386|   -4.685787|   -7.195253|    0.824270|    0.012026|
|         387|   -4.685607|   -7.196678|    0.824262|    0.012027|
|         388|   -4.685151|   -7.197531|    0.824254|    0.012028|
|         389|   -4.684474|   -7.197841|    0.824246|    0.012028|
|         390|   -4.683632|   -7.197656|    0.824239|    0.012029|
|         391|   -4.682677|   -7.197032|    0.824231|    0.012030|
|         392|   -4.681659|   -7.196039|    0.824224|    0.012030|
|         393|   -4.680623|   -7.194753|    0.824217|    0.012030|
|         394|   -4.679611|   -7.193249|    0.824210|    0.012031|
|         395|   -4.678657|   -7.191607|    0.824204|    0.012031|
|         396|   -4.677792|   -7.189895|    0.824197|    0.012031|
|         397|   -4.677042|   -7.188181|    0.824191|    0.012031|
|         398|   -4.676425|   -7.186522|    0.824185|    0.012031|
|         399|   -4.675957|   -7.184969|    0.824179|    0.012031|
|         400|   -4.675649|   -7.183558|    0.824174|    0.012031|
|         401|   -4.675508|   -7.182317|    0.824169|    0.012018|
+-----------------------------------------------------------------------+
|Fixed CL Mode                           |Value                         |
+-----------------------------------------------------------------------+
|Current CL                              |0.824169                      |
|Target CL                               |0.824                         |
|Previous AOA                            |2.76096                       |
|Changed AoA by                          |-0.000870032                  |
+-----------------------------------------------------------------------+
+----------------------------------------------------------------+
|  Inner_Iter|    rms[Rho]|     rms[nu]|          CL|          CD|
+----------------------------------------------------------------+
|         402|   -3.253661|   -7.099422|    0.824164|    0.012018|
|         403|   -3.637079|   -7.136595|    0.824159|    0.012018|
|         404|   -3.877414|   -7.148738|    0.824155|    0.012017|
|         405|   -3.952970|   -7.155488|    0.824151|    0.012017|
|         406|   -4.003908|   -7.160130|    0.824147|    0.012016|
|         407|   -4.069836|   -7.163491|    0.824143|    0.012016|
|         408|   -4.150170|   -7.165921|    0.824140|    0.012015|
|         409|   -4.231909|   -7.167682|    0.824137|    0.012014|
|         410|   -4.300018|   -7.168950|    0.824134|    0.012013|
|         411|   -4.348417|   -7.169809|    0.824131|    0.012013|
|         412|   -4.379890|   -7.170319|    0.824128|    0.012012|
|         413|   -4.398427|   -7.170589|    0.824126|    0.012011|
|         414|   -4.407419|   -7.170747|    0.824124|    0.012010|
|         415|   -4.411485|   -7.170875|    0.824122|    0.012009|
|         416|   -4.415780|   -7.170977|    0.824121|    0.012008|
|         417|   -4.423802|   -7.171014|    0.824119|    0.012007|
|         418|   -4.436370|   -7.170952|    0.824118|    0.012006|
|         419|   -4.452091|   -7.170782|    0.824117|    0.012005|
|         420|   -4.468647|   -7.170515|    0.824116|    0.012004|
|         421|   -4.484238|   -7.170166|    0.824116|    0.012003|
|         422|   -4.498405|   -7.169741|    0.824115|    0.012001|
|         423|   -4.511807|   -7.169233|    0.824115|    0.012000|
|         424|   -4.525360|   -7.168639|    0.824115|    0.011999|
|         425|   -4.539500|   -7.167965|    0.824115|    0.011998|
|         426|   -4.554003|   -7.167227|    0.824115|    0.011997|
|         427|   -4.568210|   -7.166463|    0.824116|    0.011996|
|         428|   -4.581376|   -7.165712|    0.824116|    0.011995|
|         429|   -4.592932|   -7.165023|    0.824117|    0.011994|
|         430|   -4.602596|   -7.164447|    0.824118|    0.011993|
|         431|   -4.610407|   -7.164031|    0.824119|    0.011992|
|         432|   -4.616711|   -7.163814|    0.824120|    0.011991|
|         433|   -4.622101|   -7.163828|    0.824122|    0.011990|
|         434|   -4.627289|   -7.164093|    0.824123|    0.011989|
|         435|   -4.632953|   -7.164621|    0.824125|    0.011988|
|         436|   -4.639591|   -7.165407|    0.824127|    0.011987|
|         437|   -4.647437|   -7.166440|    0.824128|    0.011986|
|         438|   -4.656438|   -7.167693|    0.824130|    0.011985|
|         439|   -4.666268|   -7.169145|    0.824132|    0.011985|
|         440|   -4.676387|   -7.170759|    0.824134|    0.011984|
|         441|   -4.686124|   -7.172494|    0.824136|    0.011983|
|         442|   -4.694815|   -7.174311|    0.824138|    0.011983|
|         443|   -4.701948|   -7.176165|    0.824141|    0.011982|
|         444|   -4.707298|   -7.178012|    0.824143|    0.011982|
|         445|   -4.710964|   -7.179810|    0.824145|    0.011982|
|         446|   -4.713320|   -7.181516|    0.824147|    0.011981|
|         447|   -4.714877|   -7.183084|    0.824149|    0.011981|
|         448|   -4.716134|   -7.184471|    0.824151|    0.011981|
|         449|   -4.717462|   -7.185631|    0.824153|    0.011980|
|         450|   -4.719047|   -7.186526|    0.824154|    0.011980|
|         451|   -4.720900|   -7.187114|    0.824156|    0.011980|
|         452|   -4.722892|   -7.187367|    0.824157|    0.011980|
|         453|   -4.724823|   -7.187267|    0.824158|    0.011980|
|         454|   -4.726489|   -7.186804|    0.824159|    0.011980|
|         455|   -4.727736|   -7.185987|    0.824160|    0.011980|
|         456|   -4.728490|   -7.184826|    0.824160|    0.011980|
|         457|   -4.728768|   -7.183347|    0.824161|    0.011980|
|         458|   -4.728655|   -7.181591|    0.824160|    0.011981|
|         459|   -4.728282|   -7.179608|    0.824160|    0.011981|
|         460|   -4.727791|   -7.177460|    0.824159|    0.011981|
|         461|   -4.727310|   -7.175216|    0.824158|    0.011981|
|         462|   -4.726942|   -7.172949|    0.824156|    0.011982|
|         463|   -4.726761|   -7.170734|    0.824155|    0.011982|
|         464|   -4.726810|   -7.168644|    0.824153|    0.011982|
|         465|   -4.727117|   -7.166753|    0.824150|    0.011983|
|         466|   -4.727694|   -7.165128|    0.824148|    0.011983|
|         467|   -4.728553|   -7.163830|    0.824145|    0.011983|
|         468|   -4.729703|   -7.162915|    0.824142|    0.011984|
|         469|   -4.731158|   -7.162424|    0.824138|    0.011984|
|         470|   -4.732929|   -7.162394|    0.824135|    0.011985|
|         471|   -4.735032|   -7.162846|    0.824131|    0.011985|
|         472|   -4.737476|   -7.163792|    0.824128|    0.011986|
|         473|   -4.740271|   -7.165230|    0.824124|    0.011986|
|         474|   -4.743420|   -7.167146|    0.824120|    0.011986|
|         475|   -4.746923|   -7.169511|    0.824116|    0.011987|
|         476|   -4.750775|   -7.172286|    0.824113|    0.011987|
|         477|   -4.754967|   -7.175417|    0.824109|    0.011988|
|         478|   -4.759485|   -7.178840|    0.824106|    0.011988|
|         479|   -4.764316|   -7.182477|    0.824102|    0.011989|
|         480|   -4.769438|   -7.186246|    0.824099|    0.011989|
|         481|   -4.774830|   -7.190058|    0.824096|    0.011990|
|         482|   -4.780468|   -7.193819|    0.824093|    0.011990|
|         483|   -4.786321|   -7.197440|    0.824091|    0.011991|
|         484|   -4.792359|   -7.200836|    0.824088|    0.011991|
|         485|   -4.798546|   -7.203932|    0.824086|    0.011991|
|         486|   -4.804842|   -7.206667|    0.824085|    0.011992|
|         487|   -4.811205|   -7.208995|    0.824083|    0.011992|
|         488|   -4.817590|   -7.210896|    0.824081|    0.011992|
|         489|   -4.823950|   -7.212369|    0.824080|    0.011993|
|         490|   -4.830234|   -7.213436|    0.824079|    0.011993|
|         491|   -4.836391|   -7.214137|    0.824079|    0.011993|
|         492|   -4.842368|   -7.214533|    0.824078|    0.011993|
|         493|   -4.848115|   -7.214695|    0.824078|    0.011993|
|         494|   -4.853579|   -7.214704|    0.824078|    0.011993|
|         495|   -4.858713|   -7.214648|    0.824078|    0.011993|
|         496|   -4.863470|   -7.214613|    0.824078|    0.011993|
|         497|   -4.867808|   -7.214686|    0.824078|    0.011993|
|         498|   -4.871693|   -7.214942|    0.824078|    0.011993|
|         499|   -4.875095|   -7.215458|    0.824079|    0.011993|
|         500|   -4.877993|   -7.216295|    0.824079|    0.011993|
|         501|   -4.880373|   -7.217499|    0.824080|    0.011987|
+-----------------------------------------------------------------------+
|Fixed CL Mode                           |Value                         |
+-----------------------------------------------------------------------+
|Current CL                              |0.82408                       |
|Target CL                               |0.824                         |
|Previous AOA                            |2.76009                       |
|Changed AoA by                          |-0.000396663                  |
+-----------------------------------------------------------------------+
+----------------------------------------------------------------+
|  Inner_Iter|    rms[Rho]|     rms[nu]|          CL|          CD|
+----------------------------------------------------------------+
|         502|   -3.594740|   -7.196881|    0.824081|    0.011987|
|         503|   -3.978378|   -7.210277|    0.824081|    0.011986|
|         504|   -4.218675|   -7.216134|    0.824082|    0.011986|
|         505|   -4.292489|   -7.220858|    0.824083|    0.011985|
|         506|   -4.340545|   -7.225430|    0.824084|    0.011985|
|         507|   -4.402292|   -7.230057|    0.824084|    0.011985|
|         508|   -4.476333|   -7.234786|    0.824085|    0.011984|
|         509|   -4.549234|   -7.239636|    0.824086|    0.011984|
|         510|   -4.607060|   -7.244606|    0.824086|    0.011983|
|         511|   -4.645769|   -7.249672|    0.824087|    0.011983|
|         512|   -4.669395|   -7.254803|    0.824088|    0.011982|
|         513|   -4.682372|   -7.259979|    0.824088|    0.011981|
|         514|   -4.687988|   -7.265189|    0.824088|    0.011981|
|         515|   -4.689958|   -7.270409|    0.824089|    0.011980|
|         516|   -4.692124|   -7.275592|    0.824089|    0.011979|
|         517|   -4.696968|   -7.280675|    0.824089|    0.011979|
|         518|   -4.704915|   -7.285588|    0.824089|    0.011978|
|         519|   -4.714783|   -7.290278|    0.824089|    0.011978|
|         520|   -4.724849|   -7.294698|    0.824089|    0.011977|
|         521|   -4.733924|   -7.298804|    0.824088|    0.011976|
|         522|   -4.741829|   -7.302549|    0.824088|    0.011976|
|         523|   -4.749104|   -7.305885|    0.824087|    0.011975|
|         524|   -4.756383|   -7.308772|    0.824086|    0.011974|
|         525|   -4.763938|   -7.311183|    0.824085|    0.011974|
|         526|   -4.771620|   -7.313095|    0.824084|    0.011973|
|         527|   -4.779040|   -7.314504|    0.824083|    0.011973|
|         528|   -4.785800|   -7.315424|    0.824081|    0.011972|
|         529|   -4.791636|   -7.315880|    0.824080|    0.011972|
|         530|   -4.796458|   -7.315910|    0.824078|    0.011971|
|         531|   -4.800355|   -7.315564|    0.824077|    0.011971|
|         532|   -4.803565|   -7.314897|    0.824075|    0.011970|
|         533|   -4.806444|   -7.313966|    0.824073|    0.011970|
|         534|   -4.809396|   -7.312828|    0.824071|    0.011970|
|         535|   -4.812797|   -7.311536|    0.824069|    0.011969|
|         536|   -4.816920|   -7.310142|    0.824066|    0.011969|
|         537|   -4.821899|   -7.308692|    0.824064|    0.011969|
|         538|   -4.827720|   -7.307228|    0.824062|    0.011969|
|         539|   -4.834235|   -7.305790|    0.824059|    0.011969|
|         540|   -4.841199|   -7.304415|    0.824057|    0.011968|
|         541|   -4.848318|   -7.303138|    0.824054|    0.011968|
|         542|   -4.855303|   -7.301989|    0.824052|    0.011968|
|         543|   -4.861937|   -7.300997|    0.824049|    0.011969|
|         544|   -4.868108|   -7.300188|    0.824047|    0.011969|
|         545|   -4.873836|   -7.299580|    0.824044|    0.011969|
|         546|   -4.879241|   -7.299193|    0.824042|    0.011969|
|         547|   -4.884506|   -7.299040|    0.824039|    0.011970|
|         548|   -4.889812|   -7.299132|    0.824037|    0.011970|
|         549|   -4.895292|   -7.299474|    0.824034|    0.011970|
|         550|   -4.900999|   -7.300066|    0.824031|    0.011971|
|         551|   -4.906902|   -7.300905|    0.824029|    0.011971|
|         552|   -4.912896|   -7.301976|    0.824026|    0.011972|
|         553|   -4.918832|   -7.303260|    0.824024|    0.011973|
|         554|   -4.924545|   -7.304733|    0.824021|    0.011973|
|         555|   -4.929891|   -7.306372|    0.824019|    0.011974|
|         556|   -4.934758|   -7.308137|    0.824016|    0.011975|
|         557|   -4.939083|   -7.309989|    0.824014|    0.011976|
|         558|   -4.942847|   -7.311884|    0.824011|    0.011977|
|         559|   -4.946063|   -7.313774|    0.824009|    0.011978|
|         560|   -4.948763|   -7.315611|    0.824006|    0.011979|
|         561|   -4.950985|   -7.317345|    0.824003|    0.011980|
|         562|   -4.952764|   -7.318931|    0.824001|    0.011981|
|         563|   -4.954127|   -7.320328|    0.823998|    0.011982|
|         564|   -4.955094|   -7.321497|    0.823995|    0.011983|
|         565|   -4.955683|   -7.322398|    0.823993|    0.011984|
|         566|   -4.955911|   -7.323025|    0.823990|    0.011985|
|         567|   -4.955801|   -7.323384|    0.823987|    0.011987|
|         568|   -4.955383|   -7.323493|    0.823984|    0.011988|
|         569|   -4.954693|   -7.323383|    0.823981|    0.011989|
|         570|   -4.953773|   -7.323092|    0.823978|    0.011990|
|         571|   -4.952668|   -7.322661|    0.823975|    0.011991|
|         572|   -4.951425|   -7.322136|    0.823973|    0.011993|
|         573|   -4.950090|   -7.321564|    0.823970|    0.011994|
|         574|   -4.948708|   -7.320993|    0.823967|    0.011995|
|         575|   -4.947323|   -7.320469|    0.823964|    0.011996|
|         576|   -4.945976|   -7.320034|    0.823961|    0.011997|
|         577|   -4.944704|   -7.319724|    0.823959|    0.011999|
|         578|   -4.943542|   -7.319565|    0.823956|    0.012000|
|         579|   -4.942526|   -7.319587|    0.823953|    0.012001|
|         580|   -4.941684|   -7.319810|    0.823951|    0.012002|
|         581|   -4.941046|   -7.320246|    0.823949|    0.012003|
|         582|   -4.940636|   -7.320895|    0.823946|    0.012004|
|         583|   -4.940479|   -7.321749|    0.823944|    0.012005|
|         584|   -4.940594|   -7.322792|    0.823942|    0.012006|
|         585|   -4.940998|   -7.324001|    0.823940|    0.012006|
|         586|   -4.941707|   -7.325345|    0.823938|    0.012007|
|         587|   -4.942733|   -7.326791|    0.823937|    0.012008|
|         588|   -4.944085|   -7.328305|    0.823935|    0.012009|
|         589|   -4.945772|   -7.329850|    0.823934|    0.012009|
|         590|   -4.947798|   -7.331392|    0.823933|    0.012010|
|         591|   -4.950165|   -7.332897|    0.823931|    0.012010|
|         592|   -4.952874|   -7.334333|    0.823930|    0.012010|
|         593|   -4.955922|   -7.335673|    0.823929|    0.012011|
|         594|   -4.959305|   -7.336896|    0.823929|    0.012011|
|         595|   -4.963014|   -7.337991|    0.823928|    0.012011|
|         596|   -4.967041|   -7.338953|    0.823927|    0.012011|
|         597|   -4.971372|   -7.339786|    0.823927|    0.012011|
|         598|   -4.975991|   -7.340501|    0.823926|    0.012011|
|         599|   -4.980879|   -7.341115|    0.823926|    0.012011|
|         600|   -4.986013|   -7.341649|    0.823926|    0.012011|
|         601|   -4.991369|   -7.342133|    0.823925|    0.012016|
+-----------------------------------------------------------------------+
|Fixed CL Mode                           |Value                         |
+-----------------------------------------------------------------------+
|Current CL                              |0.823925                      |
|Target CL                               |0.824                         |
|Previous AOA                            |2.7597                        |
|Changed AoA by                          |0.000371326                   |
+-----------------------------------------------------------------------+
+----------------------------------------------------------------+
|  Inner_Iter|    rms[Rho]|     rms[nu]|          CL|          CD|
+----------------------------------------------------------------+
|         602|   -3.623145|   -7.307276|    0.823925|    0.012016|
|         603|   -4.005782|   -7.324765|    0.823925|    0.012015|
|         604|   -4.245997|   -7.330471|    0.823925|    0.012015|
|         605|   -4.323015|   -7.333801|    0.823925|    0.012014|
|         606|   -4.375187|   -7.336302|    0.823925|    0.012014|
|         607|   -4.441955|   -7.338385|    0.823925|    0.012013|
|         608|   -4.522790|   -7.340221|    0.823925|    0.012012|
|         609|   -4.604472|   -7.341918|    0.823925|    0.012012|
|         610|   -4.671652|   -7.343540|    0.823925|    0.012011|
|         611|   -4.718344|   -7.345114|    0.823925|    0.012010|
|         612|   -4.747835|   -7.346655|    0.823925|    0.012009|
|         613|   -4.764631|   -7.348198|    0.823924|    0.012008|
|         614|   -4.772445|   -7.349795|    0.823924|    0.012007|
|         615|   -4.775930|   -7.351488|    0.823924|    0.012006|
|         616|   -4.780058|   -7.353278|    0.823924|    0.012005|
|         617|   -4.788091|   -7.355155|    0.823923|    0.012004|
|         618|   -4.800635|   -7.357111|    0.823923|    0.012003|
|         619|   -4.816105|   -7.359151|    0.823923|    0.012002|
|         620|   -4.831991|   -7.361290|    0.823922|    0.012001|
|         621|   -4.846311|   -7.363540|    0.823922|    0.012000|
|         622|   -4.858481|   -7.365908|    0.823921|    0.011998|
|         623|   -4.869119|   -7.368394|    0.823920|    0.011997|
|         624|   -4.879176|   -7.370994|    0.823920|    0.011996|
|         625|   -4.889202|   -7.373703|    0.823919|    0.011995|
|         626|   -4.899161|   -7.376515|    0.823918|    0.011994|
|         627|   -4.908639|   -7.379429|    0.823917|    0.011992|
|         628|   -4.917148|   -7.382440|    0.823916|    0.011991|
|         629|   -4.924313|   -7.385544|    0.823915|    0.011990|
|         630|   -4.929947|   -7.388727|    0.823914|    0.011989|
|         631|   -4.934062|   -7.391977|    0.823914|    0.011988|
|         632|   -4.936882|   -7.395277|    0.823913|    0.011987|
|         633|   -4.938815|   -7.398609|    0.823912|    0.011986|
|         634|   -4.940381|   -7.401948|    0.823911|    0.011985|
|         635|   -4.942100|   -7.405269|    0.823910|    0.011984|
|         636|   -4.944381|   -7.408540|    0.823910|    0.011983|
|         637|   -4.947462|   -7.411723|    0.823909|    0.011982|
|         638|   -4.951384|   -7.414786|    0.823909|    0.011981|
|         639|   -4.956013|   -7.417697|    0.823908|    0.011980|
|         640|   -4.961081|   -7.420432|    0.823908|    0.011979|
|         641|   -4.966253|   -7.422972|    0.823908|    0.011979|
|         642|   -4.971202|   -7.425307|    0.823908|    0.011978|
|         643|   -4.975692|   -7.427438|    0.823908|    0.011977|
|         644|   -4.979642|   -7.429370|    0.823908|    0.011977|
|         645|   -4.983137|   -7.431114|    0.823909|    0.011977|
|         646|   -4.986406|   -7.432693|    0.823910|    0.011976|
|         647|   -4.989746|   -7.434141|    0.823911|    0.011976|
|         648|   -4.993449|   -7.435494|    0.823912|    0.011976|
|         649|   -4.997740|   -7.436793|    0.823913|    0.011975|
|         650|   -5.002737|   -7.438082|    0.823915|    0.011975|
|         651|   -5.008452|   -7.439409|    0.823916|    0.011975|
|         652|   -5.014807|   -7.440827|    0.823918|    0.011975|
|         653|   -5.021666|   -7.442382|    0.823921|    0.011976|
|         654|   -5.028877|   -7.444124|    0.823923|    0.011976|
|         655|   -5.036303|   -7.446098|    0.823926|    0.011976|
|         656|   -5.043848|   -7.448347|    0.823928|    0.011976|
|         657|   -5.051468|   -7.450911|    0.823932|    0.011977|
|         658|   -5.059163|   -7.453823|    0.823935|    0.011977|
|         659|   -5.066971|   -7.457111|    0.823938|    0.011978|
|         660|   -5.074944|   -7.460796|    0.823942|    0.011979|
|         661|   -5.083130|   -7.464890|    0.823946|    0.011979|
|         662|   -5.091566|   -7.469402|    0.823949|    0.011980|
|         663|   -5.100262|   -7.474328|    0.823953|    0.011981|
|         664|   -5.109208|   -7.479658|    0.823957|    0.011982|
|         665|   -5.118370|   -7.485371|    0.823962|    0.011983|
|         666|   -5.127702|   -7.491436|    0.823966|    0.011984|
|         667|   -5.137147|   -7.497812|    0.823970|    0.011985|
|         668|   -5.146643|   -7.504442|    0.823974|    0.011986|
|         669|   -5.156130|   -7.511256|    0.823978|    0.011988|
|         670|   -5.165541|   -7.518176|    0.823982|    0.011989|
|         671|   -5.174813|   -7.525123|    0.823986|    0.011990|
|         672|   -5.183877|   -7.532008|    0.823990|    0.011991|
|         673|   -5.192662|   -7.538735|    0.823993|    0.011993|
|         674|   -5.201096|   -7.545202|    0.823997|    0.011994|
|         675|   -5.209102|   -7.551310|    0.824000|    0.011995|
|         676|   -5.216609|   -7.556962|    0.824003|    0.011996|
|         677|   -5.223545|   -7.562075|    0.824006|    0.011998|
|         678|   -5.229852|   -7.566580|    0.824008|    0.011999|
|         679|   -5.235479|   -7.570431|    0.824011|    0.012000|
|         680|   -5.240391|   -7.573609|    0.824012|    0.012002|
|         681|   -5.244569|   -7.576122|    0.824014|    0.012003|
|         682|   -5.248013|   -7.578005|    0.824015|    0.012004|
|         683|   -5.250739|   -7.579320|    0.824016|    0.012006|
|         684|   -5.252780|   -7.580154|    0.824017|    0.012007|
|         685|   -5.254185|   -7.580591|    0.824018|    0.012008|
|         686|   -5.255014|   -7.580747|    0.824018|    0.012009|
|         687|   -5.255339|   -7.580747|    0.824018|    0.012010|
|         688|   -5.255239|   -7.580714|    0.824017|    0.012011|
|         689|   -5.254797|   -7.580763|    0.824016|    0.012012|
|         690|   -5.254096|   -7.581005|    0.824015|    0.012013|
|         691|   -5.253222|   -7.581538|    0.824014|    0.012014|
|         692|   -5.252255|   -7.582446|    0.824013|    0.012015|
|         693|   -5.251273|   -7.583798|    0.824011|    0.012016|
|         694|   -5.250346|   -7.585648|    0.824009|    0.012017|
|         695|   -5.249542|   -7.588033|    0.824007|    0.012018|
|         696|   -5.248918|   -7.590979|    0.824005|    0.012019|
|         697|   -5.248527|   -7.594495|    0.824003|    0.012019|
|         698|   -5.248415|   -7.598576|    0.824000|    0.012020|
|         699|   -5.248623|   -7.603204|    0.823998|    0.012020|
|         700|   -5.249184|   -7.608347|    0.823995|    0.012021|
|         701|   -5.250128|   -7.613962|    0.823992|    0.012022|
+-----------------------------------------------------------------------+
|Fixed CL Mode                           |Value                         |
+-----------------------------------------------------------------------+
|Current CL                              |0.823992                      |
|Target CL                               |0.824                         |
|Previous AOA                            |2.76007                       |
|Changed AoA by                          |2.53626e-05                   |
+-----------------------------------------------------------------------+
+----------------------------------------------------------------+
|  Inner_Iter|    rms[Rho]|     rms[nu]|          CL|          CD|
+----------------------------------------------------------------+
|         702|   -4.763592|   -7.619134|    0.823989|    0.012022|
|         703|   -5.050310|   -7.625898|    0.823986|    0.012022|
|         704|   -5.153591|   -7.632718|    0.823983|    0.012023|
|         705|   -5.176646|   -7.639673|    0.823980|    0.012023|
|         706|   -5.193105|   -7.646697|    0.823977|    0.012023|
|         707|   -5.211795|   -7.653710|    0.823974|    0.012023|
|         708|   -5.230550|   -7.660633|    0.823971|    0.012023|
|         709|   -5.246816|   -7.667387|    0.823968|    0.012023|
|         710|   -5.259959|   -7.673888|    0.823965|    0.012023|
|         711|   -5.270813|   -7.680056|    0.823962|    0.012023|
|         712|   -5.280352|   -7.685833|    0.823959|    0.012023|
|         713|   -5.289114|   -7.691154|    0.823956|    0.012022|
|         714|   -5.297356|   -7.695961|    0.823953|    0.012022|
|         715|   -5.305321|   -7.700208|    0.823951|    0.012022|
|         716|   -5.313298|   -7.703862|    0.823948|    0.012021|
|         717|   -5.321540|   -7.706909|    0.823945|    0.012021|
|         718|   -5.330182|   -7.709350|    0.823943|    0.012020|
|         719|   -5.339239|   -7.711203|    0.823940|    0.012019|
|         720|   -5.348652|   -7.712503|    0.823938|    0.012019|
|         721|   -5.358362|   -7.713291|    0.823936|    0.012018|
|         722|   -5.368323|   -7.713619|    0.823934|    0.012017|
|         723|   -5.378490|   -7.713542|    0.823932|    0.012016|
|         724|   -5.388783|   -7.713121|    0.823930|    0.012016|
|         725|   -5.399074|   -7.712414|    0.823928|    0.012015|
|         726|   -5.409202|   -7.711483|    0.823926|    0.012014|
|         727|   -5.418998|   -7.710385|    0.823925|    0.012013|
|         728|   -5.428320|   -7.709175|    0.823924|    0.012012|
|         729|   -5.437067|   -7.707906|    0.823922|    0.012011|
|         730|   -5.445177|   -7.706626|    0.823921|    0.012010|
|         731|   -5.452624|   -7.705383|    0.823920|    0.012009|
|         732|   -5.459406|   -7.704217|    0.823920|    0.012008|
|         733|   -5.465531|   -7.703171|    0.823919|    0.012007|
|         734|   -5.471011|   -7.702282|    0.823918|    0.012005|
|         735|   -5.475852|   -7.701582|    0.823918|    0.012004|
|         736|   -5.480051|   -7.701096|    0.823918|    0.012003|
|         737|   -5.483600|   -7.700865|    0.823917|    0.012002|
|         738|   -5.486491|   -7.700910|    0.823917|    0.012001|
|         739|   -5.488724|   -7.701236|    0.823917|    0.012000|
|         740|   -5.490315|   -7.701849|    0.823918|    0.011999|
|         741|   -5.491299|   -7.702753|    0.823918|    0.011998|
|         742|   -5.491732|   -7.703956|    0.823918|    0.011997|
|         743|   -5.491691|   -7.705462|    0.823919|    0.011996|
|         744|   -5.491266|   -7.707279|    0.823919|    0.011995|
|         745|   -5.490556|   -7.709411|    0.823920|    0.011994|
|         746|   -5.489665|   -7.711860|    0.823920|    0.011993|
|         747|   -5.488688|   -7.714626|    0.823921|    0.011992|
|         748|   -5.487713|   -7.717707|    0.823922|    0.011991|
|         749|   -5.486814|   -7.721096|    0.823923|    0.011990|
|         750|   -5.486052|   -7.724786|    0.823924|    0.011989|
|         751|   -5.485477|   -7.728765|    0.823924|    0.011988|
|         752|   -5.485128|   -7.733016|    0.823925|    0.011988|
|         753|   -5.485036|   -7.737524|    0.823926|    0.011987|
|         754|   -5.485231|   -7.742271|    0.823927|    0.011986|
|         755|   -5.485734|   -7.747238|    0.823928|    0.011985|
|         756|   -5.486569|   -7.752402|    0.823929|    0.011985|
|         757|   -5.487752|   -7.757743|    0.823930|    0.011984|
|         758|   -5.489299|   -7.763236|    0.823931|    0.011984|
|         759|   -5.491223|   -7.768856|    0.823932|    0.011983|
|         760|   -5.493529|   -7.774577|    0.823933|    0.011983|
|         761|   -5.496219|   -7.780368|    0.823934|    0.011983|
|         762|   -5.499290|   -7.786200|    0.823935|    0.011982|
|         763|   -5.502734|   -7.792044|    0.823936|    0.011982|
|         764|   -5.506535|   -7.797869|    0.823937|    0.011982|
|         765|   -5.510676|   -7.803651|    0.823938|    0.011982|
|         766|   -5.515132|   -7.809363|    0.823939|    0.011981|
|         767|   -5.519874|   -7.814983|    0.823940|    0.011981|
|         768|   -5.524870|   -7.820492|    0.823941|    0.011981|
|         769|   -5.530080|   -7.825876|    0.823942|    0.011982|
|         770|   -5.535463|   -7.831124|    0.823943|    0.011982|
|         771|   -5.540971|   -7.836231|    0.823944|    0.011982|
|         772|   -5.546551|   -7.841197|    0.823946|    0.011982|
|         773|   -5.552148|   -7.846027|    0.823947|    0.011982|
|         774|   -5.557701|   -7.850733|    0.823948|    0.011983|
|         775|   -5.563146|   -7.855327|    0.823949|    0.011983|
|         776|   -5.568419|   -7.859828|    0.823950|    0.011984|
|         777|   -5.573452|   -7.864256|    0.823951|    0.011984|
|         778|   -5.578181|   -7.868629|    0.823952|    0.011985|
|         779|   -5.582544|   -7.872969|    0.823953|    0.011985|
|         780|   -5.586483|   -7.877292|    0.823954|    0.011986|
|         781|   -5.589947|   -7.881611|    0.823955|    0.011987|
|         782|   -5.592897|   -7.885935|    0.823956|    0.011987|
|         783|   -5.595301|   -7.890265|    0.823957|    0.011988|
|         784|   -5.597140|   -7.894598|    0.823958|    0.011989|
|         785|   -5.598410|   -7.898922|    0.823959|    0.011990|
|         786|   -5.599117|   -7.903218|    0.823959|    0.011991|
|         787|   -5.599283|   -7.907461|    0.823960|    0.011991|
|         788|   -5.598939|   -7.911620|    0.823961|    0.011992|
|         789|   -5.598129|   -7.915664|    0.823962|    0.011993|
|         790|   -5.596902|   -7.919556|    0.823962|    0.011994|
|         791|   -5.595318|   -7.923266|    0.823963|    0.011995|
|         792|   -5.593437|   -7.926761|    0.823963|    0.011996|
|         793|   -5.591326|   -7.930018|    0.823964|    0.011997|
|         794|   -5.589048|   -7.933017|    0.823964|    0.011998|
|         795|   -5.586667|   -7.935748|    0.823965|    0.011999|
|         796|   -5.584244|   -7.938210|    0.823965|    0.012000|
|         797|   -5.581835|   -7.940413|    0.823965|    0.012001|
|         798|   -5.579493|   -7.942376|    0.823965|    0.012002|
|         799|   -5.577264|   -7.944125|    0.823965|    0.012003|
|         800|   -5.575189|   -7.945696|    0.823965|    0.012004|
|         801|   -5.573301|   -7.947128|    0.823965|    0.012008|
+-----------------------------------------------------------------------+
|Fixed CL Mode                           |Value                         |
+-----------------------------------------------------------------------+
|Current CL                              |0.823965                      |
|Target CL                               |0.824                         |
|Previous AOA                            |2.76009                       |
|Changed AoA by                          |0.000175407                   |
+-----------------------------------------------------------------------+
+----------------------------------------------------------------+
|  Inner_Iter|    rms[Rho]|     rms[nu]|          CL|          CD|
+----------------------------------------------------------------+
|         802|   -3.949167|   -7.840720|    0.823965|    0.012008|
|         803|   -4.332160|   -7.889393|    0.823964|    0.012009|
|         804|   -4.571817|   -7.906825|    0.823964|    0.012010|
|         805|   -4.647989|   -7.917300|    0.823963|    0.012011|
|         806|   -4.700314|   -7.925163|    0.823963|    0.012012|
|         807|   -4.768359|   -7.931567|    0.823962|    0.012013|
|         808|   -4.852121|   -7.937003|    0.823962|    0.012013|
|         809|   -4.939149|   -7.941818|    0.823961|    0.012014|
|         810|   -5.014019|   -7.946243|    0.823960|    0.012015|
|         811|   -5.069278|   -7.950368|    0.823959|    0.012016|
|         812|   -5.106493|   -7.954226|    0.823959|    0.012016|
|         813|   -5.128978|   -7.957925|    0.823958|    0.012017|
|         814|   -5.139988|   -7.961615|    0.823957|    0.012017|
|         815|   -5.144752|   -7.965381|    0.823956|    0.012018|
|         816|   -5.149425|   -7.969218|    0.823955|    0.012018|
|         817|   -5.158272|   -7.973069|    0.823954|    0.012018|
|         818|   -5.172393|   -7.976887|    0.823953|    0.012019|
|         819|   -5.190245|   -7.980674|    0.823952|    0.012019|
|         820|   -5.209089|   -7.984463|    0.823951|    0.012019|
|         821|   -5.226680|   -7.988278|    0.823950|    0.012019|
|         822|   -5.242341|   -7.992116|    0.823949|    0.012020|
|         823|   -5.256798|   -7.995926|    0.823948|    0.012020|
|         824|   -5.271141|   -7.999646|    0.823947|    0.012020|
|         825|   -5.285919|   -8.003200|    0.823945|    0.012020|
|         826|   -5.300885|   -8.006525|    0.823944|    0.012020|
|         827|   -5.315266|   -8.009573|    0.823943|    0.012020|
|         828|   -5.328178|   -8.012317|    0.823942|    0.012019|
|         829|   -5.338944|   -8.014742|    0.823941|    0.012019|
|         830|   -5.347226|   -8.016840|    0.823941|    0.012019|
|         831|   -5.353061|   -8.018612|    0.823940|    0.012019|
|         832|   -5.356852|   -8.020061|    0.823939|    0.012018|
|         833|   -5.359290|   -8.021194|    0.823938|    0.012018|
|         834|   -5.361206|   -8.021999|    0.823937|    0.012018|
|         835|   -5.363383|   -8.022468|    0.823936|    0.012017|
|         836|   -5.366398|   -8.022577|    0.823936|    0.012017|
|         837|   -5.370531|   -8.022304|    0.823935|    0.012016|
|         838|   -5.375761|   -8.021624|    0.823934|    0.012016|
|         839|   -5.381793|   -8.020513|    0.823934|    0.012015|
|         840|   -5.388132|   -8.018957|    0.823933|    0.012015|
|         841|   -5.394187|   -8.016950|    0.823933|    0.012014|
|         842|   -5.399402|   -8.014500|    0.823932|    0.012013|
|         843|   -5.403392|   -8.011626|    0.823932|    0.012013|
|         844|   -5.406054|   -8.008359|    0.823932|    0.012012|
|         845|   -5.407581|   -8.004738|    0.823932|    0.012011|
|         846|   -5.408394|   -8.000807|    0.823931|    0.012011|
|         847|   -5.409012|   -7.996606|    0.823931|    0.012010|
|         848|   -5.409918|   -7.992185|    0.823932|    0.012009|
|         849|   -5.411459|   -7.987602|    0.823932|    0.012008|
|         850|   -5.413807|   -7.982909|    0.823932|    0.012008|
|         851|   -5.416962|   -7.978159|    0.823932|    0.012007|
|         852|   -5.420789|   -7.973407|    0.823933|    0.012006|
|         853|   -5.425081|   -7.968703|    0.823933|    0.012005|
|         854|   -5.429613|   -7.964099|    0.823934|    0.012005|
|         855|   -5.434194|   -7.959654|    0.823935|    0.012004|
|         856|   -5.438700|   -7.955428|    0.823936|    0.012003|
|         857|   -5.443084|   -7.951478|    0.823937|    0.012003|
|         858|   -5.447369|   -7.947865|    0.823938|    0.012002|
|         859|   -5.451622|   -7.944647|    0.823939|    0.012001|
|         860|   -5.455927|   -7.941880|    0.823940|    0.012000|
|         861|   -5.460360|   -7.939621|    0.823942|    0.012000|
|         862|   -5.464974|   -7.937926|    0.823943|    0.011999|
|         863|   -5.469791|   -7.936845|    0.823945|    0.011999|
|         864|   -5.474801|   -7.936428|    0.823946|    0.011998|
|         865|   -5.479974|   -7.936717|    0.823948|    0.011997|
|         866|   -5.485261|   -7.937747|    0.823950|    0.011997|
|         867|   -5.490609|   -7.939547|    0.823952|    0.011996|
|         868|   -5.495966|   -7.942136|    0.823954|    0.011996|
|         869|   -5.501278|   -7.945520|    0.823956|    0.011995|
|         870|   -5.506499|   -7.949695|    0.823958|    0.011995|
|         871|   -5.511582|   -7.954638|    0.823960|    0.011995|
|         872|   -5.516481|   -7.960309|    0.823962|    0.011994|
|         873|   -5.521152|   -7.966648|    0.823964|    0.011994|
|         874|   -5.525547|   -7.973571|    0.823966|    0.011993|
|         875|   -5.529621|   -7.980972|    0.823968|    0.011993|
|         876|   -5.533327|   -7.988717|    0.823970|    0.011993|
|         877|   -5.536626|   -7.996648|    0.823972|    0.011993|
|         878|   -5.539481|   -8.004584|    0.823974|    0.011992|
|         879|   -5.541867|   -8.012326|    0.823975|    0.011992|
|         880|   -5.543766|   -8.019661|    0.823977|    0.011992|
|         881|   -5.545173|   -8.026381|    0.823979|    0.011992|
|         882|   -5.546092|   -8.032285|    0.823980|    0.011992|
|         883|   -5.546538|   -8.037204|    0.823982|    0.011992|
|         884|   -5.546537|   -8.041009|    0.823983|    0.011992|
|         885|   -5.546123|   -8.043624|    0.823984|    0.011992|
|         886|   -5.545338|   -8.045036|    0.823985|    0.011992|
|         887|   -5.544228|   -8.045294|    0.823986|    0.011992|
|         888|   -5.542846|   -8.044503|    0.823987|    0.011992|
|         889|   -5.541243|   -8.042818|    0.823988|    0.011992|
|         890|   -5.539475|   -8.040425|    0.823988|    0.011992|
|         891|   -5.537596|   -8.037530|    0.823989|    0.011993|
|         892|   -5.535657|   -8.034344|    0.823989|    0.011993|
|         893|   -5.533706|   -8.031071|    0.823990|    0.011993|
|         894|   -5.531790|   -8.027897|    0.823990|    0.011993|
|         895|   -5.529949|   -8.024988|    0.823990|    0.011994|
|         896|   -5.528219|   -8.022483|    0.823990|    0.011994|
|         897|   -5.526634|   -8.020494|    0.823990|    0.011994|
|         898|   -5.525220|   -8.019107|    0.823990|    0.011995|
|         899|   -5.524000|   -8.018382|    0.823990|    0.011995|
|         900|   -5.522995|   -8.018354|    0.823990|    0.011995|
|         901|   -5.522220|   -8.019034|    0.823989|    0.011997|
+-----------------------------------------------------------------------+
|Fixed CL Mode                           |Value                         |
+-----------------------------------------------------------------------+
|Current CL                              |0.823989                      |
|Target CL                               |0.824                         |
|Previous AOA                            |2.76027                       |
[...]
|        5298|   -6.051371|   -7.919725|    0.824240|    0.012006|
|        5299|   -6.058080|   -7.923286|    0.824241|    0.012006|
|        5300|   -6.064341|   -7.926870|    0.824241|    0.012006|
|        5301|   -6.070123|   -7.930488|    0.824241|    0.012006|
|        5302|   -6.075410|   -7.934146|    0.824241|    0.012006|
|        5303|   -6.080196|   -7.937849|    0.824241|    0.012006|
|        5304|   -6.084491|   -7.941599|    0.824241|    0.012006|
|        5305|   -6.088316|   -7.945397|    0.824241|    0.012006|
|        5306|   -6.091703|   -7.949241|    0.824241|    0.012006|
|        5307|   -6.094695|   -7.953130|    0.824241|    0.012006|
|        5308|   -6.097343|   -7.957062|    0.824242|    0.012006|
|        5309|   -6.099704|   -7.961032|    0.824242|    0.012006|
|        5310|   -6.101836|   -7.965038|    0.824242|    0.012006|
|        5311|   -6.103802|   -7.969080|    0.824242|    0.012006|
|        5312|   -6.105663|   -7.973156|    0.824242|    0.012006|
|        5313|   -6.107478|   -7.977268|    0.824242|    0.012006|
|        5314|   -6.109305|   -7.981417|    0.824242|    0.012006|
|        5315|   -6.111195|   -7.985601|    0.824242|    0.012006|
|        5316|   -6.113197|   -7.989826|    0.824242|    0.012006|
|        5317|   -6.115352|   -7.994094|    0.824243|    0.012006|
|        5318|   -6.117694|   -7.998410|    0.824243|    0.012006|
|        5319|   -6.120252|   -8.002780|    0.824243|    0.012006|
|        5320|   -6.123046|   -8.007207|    0.824243|    0.012006|
|        5321|   -6.126091|   -8.011698|    0.824243|    0.012006|
|        5322|   -6.129394|   -8.016255|    0.824243|    0.012006|
|        5323|   -6.132957|   -8.020879|    0.824243|    0.012006|
|        5324|   -6.136775|   -8.025573|    0.824244|    0.012006|
|        5325|   -6.140837|   -8.030336|    0.824244|    0.012006|
|        5326|   -6.145124|   -8.035166|    0.824244|    0.012006|
|        5327|   -6.149612|   -8.040060|    0.824244|    0.012006|
|        5328|   -6.154269|   -8.045015|    0.824244|    0.012006|
|        5329|   -6.159061|   -8.050028|    0.824245|    0.012006|
|        5330|   -6.163947|   -8.055090|    0.824245|    0.012007|
|        5331|   -6.168884|   -8.060194|    0.824245|    0.012007|
|        5332|   -6.173825|   -8.065331|    0.824245|    0.012007|
|        5333|   -6.178724|   -8.070492|    0.824245|    0.012007|
|        5334|   -6.183534|   -8.075668|    0.824245|    0.012007|
|        5335|   -6.188210|   -8.080856|    0.824246|    0.012007|
|        5336|   -6.192708|   -8.086045|    0.824246|    0.012007|
|        5337|   -6.196989|   -8.091227|    0.824246|    0.012007|
|        5338|   -6.201020|   -8.096395|    0.824246|    0.012007|
|        5339|   -6.204776|   -8.101543|    0.824246|    0.012007|
|        5340|   -6.208237|   -8.106669|    0.824246|    0.012007|
|        5341|   -6.211394|   -8.111770|    0.824247|    0.012007|
|        5342|   -6.214247|   -8.116846|    0.824247|    0.012008|
|        5343|   -6.216804|   -8.121895|    0.824247|    0.012008|
|        5344|   -6.219084|   -8.126921|    0.824247|    0.012008|
|        5345|   -6.221111|   -8.131926|    0.824247|    0.012008|
|        5346|   -6.222917|   -8.136913|    0.824247|    0.012008|
|        5347|   -6.224542|   -8.141885|    0.824247|    0.012008|
|        5348|   -6.226028|   -8.146848|    0.824248|    0.012008|
|        5349|   -6.227420|   -8.151805|    0.824248|    0.012008|
|        5350|   -6.228766|   -8.156760|    0.824248|    0.012008|
|        5351|   -6.230113|   -8.161719|    0.824248|    0.012008|
|        5352|   -6.231507|   -8.166685|    0.824248|    0.012008|
|        5353|   -6.232993|   -8.171661|    0.824248|    0.012008|
|        5354|   -6.234612|   -8.176651|    0.824248|    0.012008|
|        5355|   -6.236405|   -8.181657|    0.824248|    0.012008|
|        5356|   -6.238404|   -8.186680|    0.824249|    0.012008|
|        5357|   -6.240641|   -8.191721|    0.824249|    0.012008|
|        5358|   -6.243140|   -8.196779|    0.824249|    0.012008|
|        5359|   -6.245924|   -8.201854|    0.824249|    0.012008|
|        5360|   -6.249007|   -8.206945|    0.824249|    0.012008|
|        5361|   -6.252401|   -8.212048|    0.824249|    0.012008|
|        5362|   -6.256113|   -8.217162|    0.824249|    0.012008|
|        5363|   -6.260142|   -8.222283|    0.824249|    0.012009|
|        5364|   -6.264486|   -8.227406|    0.824249|    0.012009|
|        5365|   -6.269134|   -8.232528|    0.824249|    0.012009|
|        5366|   -6.274073|   -8.237644|    0.824249|    0.012009|
|        5367|   -6.279283|   -8.242748|    0.824249|    0.012009|
|        5368|   -6.284739|   -8.247837|    0.824249|    0.012009|
|        5369|   -6.290412|   -8.252903|    0.824249|    0.012008|
|        5370|   -6.296271|   -8.257943|    0.824249|    0.012008|
|        5371|   -6.302277|   -8.262951|    0.824249|    0.012008|
|        5372|   -6.308390|   -8.267923|    0.824249|    0.012008|
|        5373|   -6.314563|   -8.272854|    0.824249|    0.012008|
|        5374|   -6.320749|   -8.277741|    0.824249|    0.012008|
|        5375|   -6.326899|   -8.282583|    0.824249|    0.012008|
|        5376|   -6.332962|   -8.287377|    0.824249|    0.012008|
|        5377|   -6.338890|   -8.292124|    0.824249|    0.012008|
|        5378|   -6.344633|   -8.296826|    0.824249|    0.012008|
|        5379|   -6.350146|   -8.301484|    0.824249|    0.012008|
|        5380|   -6.355387|   -8.306101|    0.824249|    0.012008|
|        5381|   -6.360319|   -8.310680|    0.824249|    0.012008|
|        5382|   -6.364911|   -8.315226|    0.824249|    0.012008|
|        5383|   -6.369137|   -8.319743|    0.824249|    0.012008|
|        5384|   -6.372983|   -8.324236|    0.824249|    0.012008|
|        5385|   -6.376438|   -8.328715|    0.824249|    0.012008|
|        5386|   -6.379501|   -8.333184|    0.824249|    0.012008|
|        5387|   -6.382176|   -8.337652|    0.824250|    0.012008|
|        5388|   -6.384476|   -8.342124|    0.824250|    0.012007|
|        5389|   -6.386418|   -8.346603|    0.824250|    0.012007|
|        5390|   -6.388024|   -8.351092|    0.824250|    0.012007|
|        5391|   -6.389319|   -8.355593|    0.824250|    0.012007|
|        5392|   -6.390330|   -8.360106|    0.824250|    0.012007|
|        5393|   -6.391084|   -8.364630|    0.824250|    0.012007|
|        5394|   -6.391610|   -8.369164|    0.824250|    0.012007|
|        5395|   -6.391934|   -8.373704|    0.824250|    0.012007|
|        5396|   -6.392081|   -8.378247|    0.824250|    0.012007|
|        5397|   -6.392075|   -8.382786|    0.824250|    0.012007|
|        5398|   -6.391937|   -8.387316|    0.824251|    0.012007|
|        5399|   -6.391683|   -8.391828|    0.824251|    0.012006|
|        5400|   -6.391329|   -8.396316|    0.824251|    0.012006|
|        5401|   -6.390889|   -8.400771|    0.824251|    0.012006|
|        5402|   -6.390371|   -8.405183|    0.824251|    0.012006|
|        5403|   -6.389784|   -8.409544|    0.824251|    0.012006|
|        5404|   -6.389135|   -8.413844|    0.824251|    0.012006|
|        5405|   -6.388428|   -8.418075|    0.824252|    0.012006|
|        5406|   -6.387666|   -8.422229|    0.824252|    0.012006|
|        5407|   -6.386853|   -8.426296|    0.824252|    0.012006|
|        5408|   -6.385990|   -8.430270|    0.824252|    0.012006|
|        5409|   -6.385081|   -8.434145|    0.824252|    0.012005|
|        5410|   -6.384126|   -8.437914|    0.824252|    0.012005|
|        5411|   -6.383128|   -8.441572|    0.824253|    0.012005|
|        5412|   -6.382090|   -8.445116|    0.824253|    0.012005|
|        5413|   -6.381015|   -8.448541|    0.824253|    0.012005|
|        5414|   -6.379905|   -8.451845|    0.824253|    0.012005|
|        5415|   -6.378765|   -8.455025|    0.824253|    0.012005|
|        5416|   -6.377601|   -8.458077|    0.824253|    0.012005|
|        5417|   -6.376416|   -8.461000|    0.824253|    0.012005|
|        5418|   -6.375218|   -8.463790|    0.824253|    0.012005|
|        5419|   -6.374012|   -8.466446|    0.824254|    0.012005|
|        5420|   -6.372808|   -8.468964|    0.824254|    0.012005|
|        5421|   -6.371612|   -8.471341|    0.824254|    0.012004|
|        5422|   -6.370433|   -8.473574|    0.824254|    0.012004|
|        5423|   -6.369283|   -8.475660|    0.824254|    0.012004|
|        5424|   -6.368171|   -8.477594|    0.824254|    0.012004|
|        5425|   -6.367108|   -8.479375|    0.824254|    0.012004|
|        5426|   -6.366108|   -8.480999|    0.824254|    0.012004|
|        5427|   -6.365182|   -8.482467|    0.824254|    0.012004|
|        5428|   -6.364346|   -8.483777|    0.824255|    0.012004|
|        5429|   -6.363613|   -8.484931|    0.824255|    0.012004|
|        5430|   -6.362999|   -8.485929|    0.824255|    0.012004|
|        5431|   -6.362518|   -8.486777|    0.824255|    0.012004|
|        5432|   -6.362188|   -8.487478|    0.824255|    0.012004|
|        5433|   -6.362024|   -8.488040|    0.824255|    0.012004|
|        5434|   -6.362042|   -8.488471|    0.824255|    0.012004|
|        5435|   -6.362259|   -8.488780|    0.824255|    0.012004|
|        5436|   -6.362689|   -8.488979|    0.824255|    0.012004|
|        5437|   -6.363348|   -8.489080|    0.824255|    0.012004|
|        5438|   -6.364250|   -8.489096|    0.824255|    0.012004|
|        5439|   -6.365408|   -8.489042|    0.824255|    0.012004|
|        5440|   -6.366833|   -8.488933|    0.824255|    0.012004|
|        5441|   -6.368535|   -8.488782|    0.824255|    0.012004|
|        5442|   -6.370522|   -8.488605|    0.824255|    0.012004|
|        5443|   -6.372801|   -8.488416|    0.824256|    0.012004|
|        5444|   -6.375376|   -8.488226|    0.824256|    0.012004|
|        5445|   -6.378246|   -8.488050|    0.824256|    0.012004|
|        5446|   -6.381412|   -8.487897|    0.824256|    0.012005|
|        5447|   -6.384869|   -8.487778|    0.824256|    0.012005|
|        5448|   -6.388609|   -8.487703|    0.824256|    0.012005|
|        5449|   -6.392621|   -8.487678|    0.824256|    0.012005|
|        5450|   -6.396891|   -8.487709|    0.824256|    0.012005|
|        5451|   -6.401403|   -8.487800|    0.824256|    0.012005|
|        5452|   -6.406133|   -8.487957|    0.824256|    0.012005|
|        5453|   -6.411058|   -8.488184|    0.824256|    0.012005|
|        5454|   -6.416149|   -8.488481|    0.824256|    0.012005|
|        5455|   -6.421373|   -8.488851|    0.824256|    0.012005|
|        5456|   -6.426695|   -8.489292|    0.824256|    0.012005|
|        5457|   -6.432077|   -8.489804|    0.824256|    0.012005|
|        5458|   -6.437476|   -8.490385|    0.824256|    0.012005|
|        5459|   -6.442851|   -8.491034|    0.824256|    0.012005|
|        5460|   -6.448154|   -8.491749|    0.824256|    0.012006|
|        5461|   -6.453339|   -8.492529|    0.824255|    0.012006|
|        5462|   -6.458361|   -8.493371|    0.824255|    0.012006|
|        5463|   -6.463174|   -8.494273|    0.824255|    0.012006|
|        5464|   -6.467733|   -8.495234|    0.824255|    0.012006|
|        5465|   -6.471998|   -8.496252|    0.824255|    0.012006|
|        5466|   -6.475932|   -8.497326|    0.824255|    0.012006|
|        5467|   -6.479503|   -8.498454|    0.824255|    0.012006|
|        5468|   -6.482685|   -8.499635|    0.824255|    0.012006|
|        5469|   -6.485457|   -8.500869|    0.824255|    0.012006|
|        5470|   -6.487808|   -8.502153|    0.824255|    0.012006|
|        5471|   -6.489733|   -8.503488|    0.824255|    0.012006|
|        5472|   -6.491233|   -8.504872|    0.824255|    0.012007|
|        5473|   -6.492318|   -8.506304|    0.824255|    0.012007|
|        5474|   -6.493003|   -8.507784|    0.824254|    0.012007|
|        5475|   -6.493312|   -8.509309|    0.824254|    0.012007|
|        5476|   -6.493271|   -8.510879|    0.824254|    0.012007|
|        5477|   -6.492913|   -8.512493|    0.824254|    0.012007|
|        5478|   -6.492271|   -8.514150|    0.824254|    0.012007|
|        5479|   -6.491384|   -8.515847|    0.824254|    0.012007|
|        5480|   -6.490289|   -8.517584|    0.824254|    0.012007|
|        5481|   -6.489026|   -8.519359|    0.824254|    0.012007|
|        5482|   -6.487634|   -8.521170|    0.824253|    0.012007|
|        5483|   -6.486150|   -8.523016|    0.824253|    0.012007|
|        5484|   -6.484611|   -8.524894|    0.824253|    0.012007|
|        5485|   -6.483052|   -8.526805|    0.824253|    0.012007|
|        5486|   -6.481503|   -8.528746|    0.824253|    0.012007|
|        5487|   -6.479995|   -8.530716|    0.824253|    0.012007|
|        5488|   -6.478554|   -8.532715|    0.824253|    0.012007|
|        5489|   -6.477205|   -8.534742|    0.824252|    0.012007|
|        5490|   -6.475969|   -8.536796|    0.824252|    0.012007|
|        5491|   -6.474864|   -8.538878|    0.824252|    0.012007|
|        5492|   -6.473908|   -8.540988|    0.824252|    0.012007|
|        5493|   -6.473113|   -8.543126|    0.824252|    0.012007|
|        5494|   -6.472491|   -8.545295|    0.824252|    0.012007|
|        5495|   -6.472051|   -8.547495|    0.824252|    0.012007|
|        5496|   -6.471801|   -8.549728|    0.824252|    0.012007|
|        5497|   -6.471746|   -8.551996|    0.824251|    0.012007|
|        5498|   -6.471889|   -8.554300|    0.824251|    0.012007|
|        5499|   -6.472233|   -8.556643|    0.824251|    0.011993|
+-----------------------------------------------------------------------+
|Fixed CL Mode (Finite Difference)       |Value                         |
+-----------------------------------------------------------------------+
|Delta CL / Delta AoA                    |0.251452                      |
|Delta CD / Delta CL                     |0.0212581                     |
|Delta CMz / Delta CL                    |0.0174054                     |
+-----------------------------------------------------------------------+
Writing Flow Meta-Data file: flow.meta

----------------------------- Solver Exit -------------------------------

Maximum number of iterations reached (ITER = 5500) before convergence.
+-----------------------------------------------------------------------+
|      Convergence Field     |     Value    |   Criterion  |  Converged |
+-----------------------------------------------------------------------+
|                    rms[Rho]|      -6.47223|         < -12|          No|
+-----------------------------------------------------------------------+
-------------------------------------------------------------------------

--------------------------- Finalizing Solver ---------------------------
Deleted CNumerics container.
Deleted CIntegration container.
Deleted CSolver container.
Deleted CIteration container.
Deleted CInterface container.
Deleted CGeometry container.
Deleted CFreeFormDefBox class.
Deleted CSurfaceMovement class.
Deleted CVolumetricMovement class.
Deleted CConfig container.
Deleted nInst container.
Deleted COutput class.
-------------------------------------------------------------------------

------------------------- Exit Success (SU2_CFD) ------------------------


-------------------------------------------------------------------------
|    ___ _   _ ___                                                      |
|   / __| | | |_  )   Release 8.0.0 "Harrier"                           |
|   \__ \ |_| |/ /                                                      |
|   |___/\___//___|   Suite (Solution Exporting Code)                   |
|                                                                       |
-------------------------------------------------------------------------
| SU2 Project Website: https://su2code.github.io                        |
|                                                                       |
| The SU2 Project is maintained by the SU2 Foundation                   |
| (http://su2foundation.org)                                            |
-------------------------------------------------------------------------
| Copyright 2012-2023, SU2 Contributors                                 |
|                                                                       |
| SU2 is free software; you can redistribute it and/or                  |
| modify it under the terms of the GNU Lesser General Public            |
| License as published by the Free Software Foundation; either          |
| version 2.1 of the License, or (at your option) any later version.    |
|                                                                       |
| SU2 is distributed in the hope that it will be useful,                |
| but WITHOUT ANY WARRANTY; without even the implied warranty of        |
| MERCHANTABILITY or FITNESS FOR A PARTICULAR PURPOSE. See the GNU      |
| Lesser General Public License for more details.                       |
|                                                                       |
| You should have received a copy of the GNU Lesser General Public      |
| License along with SU2. If not, see <http://www.gnu.org/licenses/>.   |
-------------------------------------------------------------------------

----------------- Physical Case Definition ( Zone 0 ) -------------------
Input mesh file name: mesh_RAE2822_turb_deform.su2

-------------------- Output Information ( Zone 0 ) ----------------------
The tabular file format is CSV (.csv).
Flow variables file name: flow.

------------- Config File Boundary Information ( Zone 0 ) ---------------
+-----------------------------------------------------------------------+
|                        Marker Type|                        Marker Name|
+-----------------------------------------------------------------------+
|                          Far-field|                           FARFIELD|
+-----------------------------------------------------------------------+
|                     Heat flux wall|                            AIRFOIL|
+-----------------------------------------------------------------------+
Two dimensional problem.
13937 grid points before partitioning.
22842 volume elements before partitioning.
2 surface markers.
192 boundary elements in index 0 (Marker = AIRFOIL).
40 boundary elements in index 1 (Marker = FARFIELD).
Executing the partitioning functions.
Building the graph adjacency structure.
Calling ParMETIS... graph partitioning complete (831 edge cuts).
Distributing ParMETIS coloring.
Rebalancing vertices.
Rebalancing volume element connectivity.
Rebalancing markers and surface elements.
14875 vertices including ghost points. 
23674 interior elements including halo cells. 
18780 triangles.
4894 quadrilaterals.
Establishing MPI communication patterns.
Identify vertices.
Storing a mapping from global to local point index.

------------------------- Solution Postprocessing -----------------------
Reading and storing the solution from restart_flow.
Volume output fields: COORDINATES, SOLUTION
  Info: Ignoring the following screen output fields:
  RMS_DENSITY, RMS_NU_TILDE, LIFT, DRAG
Screen output fields: INNER_ITER
  Info: Ignoring the following history output groups:
  RMS_RES, AERO_COEFF
History output group(s): ITER
Warning: No (valid) fields chosen for convergence monitoring. Convergence monitoring inactive.
Warning: No (valid) fields chosen for time convergence monitoring. Time convergence monitoring inactive.
|Paraview                           |flow.vtu                           |
|Paraview surface                   |surface_flow.vtu                   |
|CSV file                           |surface_flow.csv                   |

------------------------- Finalize Solver -------------------------
Deleted CGeometry container.
Deleted CSolver class.
Deleted CConfig container.
Deleted COutput class.

Completed in 0.015984 seconds on 6 cores.

------------------------- Exit Success (SU2_SOL) ------------------------

