
-------------------------------------------------------------------------
|    ___ _   _ ___                                                      |
|   / __| | | |_  )   Release 8.0.0 "Harrier"                           |
|   \__ \ |_| |/ /                                                      |
|   |___/\___//___|   Suite (Computational Fluid Dynamics Code)         |
|                                                                       |
-------------------------------------------------------------------------
| SU2 Project Website: https://su2code.github.io                        |
|                                                                       |
| The SU2 Project is maintained by the SU2 Foundation                   |
| (http://su2foundation.org)                                            |
-------------------------------------------------------------------------
| Copyright 2012-2023, SU2 Contributors                                 |
|                                                                       |
| SU2 is free software; you can redistribute it and/or                  |
| modify it under the terms of the GNU Lesser General Public            |
| License as published by the Free Software Foundation; either          |
| version 2.1 of the License, or (at your option) any later version.    |
|                                                                       |
| SU2 is distributed in the hope that it will be useful,                |
| but WITHOUT ANY WARRANTY; without even the implied warranty of        |
| MERCHANTABILITY or FITNESS FOR A PARTICULAR PURPOSE. See the GNU      |
| Lesser General Public License for more details.                       |
|                                                                       |
| You should have received a copy of the GNU Lesser General Public      |
| License along with SU2. If not, see <http://www.gnu.org/licenses/>.   |
-------------------------------------------------------------------------

Parsing config file for zone 0

----------------- Physical Case Definition ( Zone 0 ) -------------------
Compressible RANS equations.
Turbulence model: Spalart-Allmaras-noft2
Hybrid RANS/LES: No Hybrid RANS/LES
Mach number: 0.734.
Angle of attack (AoA): 2.31 deg, and angle of sideslip (AoS): 0 deg.
Reynolds number: 6.5e+06. Reference length 1.
Fixed CL mode, target value: 0.824.
Reading and writing binary SU2 native restart files.
Read flow solution from: solution_flow.dat.
Dimensional simulation.
The reference area is 1 m^2.
The semi-span will be computed using the max y(3D) value.
The reference length is 1 m.
Reference origin for moment evaluation is (0.25, 0, 0).
Surface(s) where the force coefficients are evaluated: AIRFOIL.

Surface(s) plotted in the output file: AIRFOIL.
Surface(s) affected by the design variables: AIRFOIL.
Input mesh file name: mesh_RAE2822_turb_deform.su2

--------------- Space Numerical Integration ( Zone 0 ) ------------------
Jameson-Schmidt-Turkel scheme (2nd order in space) for the flow inviscid terms.
JST viscous coefficients (2nd & 4th): 0.5, 0.02.
The method includes a grid stretching correction (p = 0.3).
Scalar upwind solver for the turbulence model.
First order integration in space.
Average of gradients with correction (viscous flow terms).
Average of gradients with correction (viscous turbulence terms).
Gradient for viscous and source terms: inverse-distance weighted Least-Squares.

--------------- Time Numerical Integration  ( Zone 0 ) ------------------
Local time stepping (steady state simulation).
Euler implicit method for the flow equations.
FGMRES is used for solving the linear system.
Using a ILU(0) preconditioning.
Convergence criteria of the linear solver: 1e-06.
Max number of linear iterations: 10.
No CFL adaptation.
Courant-Friedrichs-Lewy number:       10
Euler implicit time integration for the turbulence model.

------------------ Convergence Criteria  ( Zone 0 ) ---------------------
Maximum number of solver subiterations: 5500.
Begin convergence monitoring at iteration 10.
Residual minimum value: 1e-12.
Cauchy series min. value: 1e-06.
Number of Cauchy elements: 100.
Begin windowed time average at iteration 0.

-------------------- Output Information ( Zone 0 ) ----------------------
File writing frequency: 
+------------------------------------+
|                     File| Frequency|
+------------------------------------+
|                  RESTART|     10000|
|                 PARAVIEW|     10000|
|         SURFACE_PARAVIEW|     10000|
|              SURFACE_CSV|     10000|
+------------------------------------+
Writing the convergence history file every 1 inner iterations.
Writing the screen convergence history every 1 inner iterations.
The tabular file format is CSV (.csv).
Convergence history file name: history_direct.
Forces breakdown file name: forces_breakdown.dat.
Surface file name: surface_flow.
Volume file name: flow.
Restart file name: restart_flow.dat.

------------- Config File Boundary Information ( Zone 0 ) ---------------
+-----------------------------------------------------------------------+
|                        Marker Type|                        Marker Name|
+-----------------------------------------------------------------------+
|                          Far-field|                           FARFIELD|
+-----------------------------------------------------------------------+
|                     Heat flux wall|                            AIRFOIL|
+-----------------------------------------------------------------------+

-------------------- Output Preprocessing ( Zone 0 ) --------------------

WARNING: SURFACE_PRESSURE_DROP can only be computed for at least 2 surfaces (outlet, inlet, ...)

Screen output fields: INNER_ITER, RMS_DENSITY, RMS_NU_TILDE, LIFT, DRAG
History output group(s): ITER, RMS_RES, AERO_COEFF
Convergence field(s): RMS_DENSITY
Warning: No (valid) fields chosen for time convergence monitoring. Time convergence monitoring inactive.
Volume output fields: COORDINATES, SOLUTION, PRIMITIVE

------------------- Geometry Preprocessing ( Zone 0 ) -------------------
Two dimensional problem.
13937 grid points before partitioning.
22842 volume elements before partitioning.
2 surface markers.
192 boundary elements in index 0 (Marker = AIRFOIL).
40 boundary elements in index 1 (Marker = FARFIELD).
Executing the partitioning functions.
Building the graph adjacency structure.
Calling ParMETIS... graph partitioning complete (831 edge cuts).
Distributing ParMETIS coloring.
Rebalancing vertices.
Rebalancing volume element connectivity.
Rebalancing markers and surface elements.
14875 vertices including ghost points. 
23674 interior elements including halo cells. 
18780 triangles.
4894 quadrilaterals.
Establishing MPI communication patterns.
Setting point connectivity.
Renumbering points (Reverse Cuthill McKee Ordering).
Recomputing point connectivity.
Setting element connectivity.
Checking the numerical grid orientation.
All volume elements are correctly orientend.
All surface elements are correctly orientend.
Identifying edges and vertices.
Setting the control volume structure.
Area of the computational grid: 32209.9.
Searching for the closest normal neighbors to the surfaces.
Storing a mapping from global to local point index.
Compute the surface curvature.
Max K: 163.088. Mean K: 7.46383. Standard deviation K: 22.2939.
Checking for periodicity.
Computing mesh quality statistics for the dual control volumes.
+--------------------------------------------------------------+
|           Mesh Quality Metric|        Minimum|        Maximum|
+--------------------------------------------------------------+
|    Orthogonality Angle (deg.)|        75.2819|        89.9994|
|     CV Face Area Aspect Ratio|        1.00147|        3358.43|
|           CV Sub-Volume Ratio|        1.00065|        1212.89|
+--------------------------------------------------------------+
Finding max control volume width.
Communicating number of neighbors.
Wetted area = 2.0227 m.
Area projection in the x-plane = 0.124438 m, y-plane = 0.995873 m.
Max. coordinate in the x-direction = 1 m, y-direction = 0.0630139 m.
Min. coordinate in the x-direction = 0 m, y-direction = -0.0595985 m.
Computing wall distances.

-------------------- Solver Preprocessing ( Zone 0 ) --------------------
WARNING: AoA in the solution file (2.78424 deg.) +
         AoA offset in mesh file (0 deg.) = 2.78424 deg.
WARNING: SU2 will use the dCD/dCL provided in the direct solution file: 0.0206616.
WARNING: SU2 will use the dCMz/dCL provided in the direct solution file: 0.0249325.
Viscous flow: Computing pressure using the ideal gas law
based on the free-stream temperature and a density computed
from the Reynolds number.
Force coefficients computed using free-stream values.

-- Models:
+------------------------------------------------------------------------------+
|          Viscosity Model|        Conductivity Model|              Fluid Model|
+------------------------------------------------------------------------------+
|               SUTHERLAND|          CONSTANT_PRANDTL|             STANDARD_AIR|
+------------------------------------------------------------------------------+
-- Fluid properties:
+------------------------------------------------------------------------------+
|                  Name|    Dim. value|    Ref. value|      Unit|Non-dim. value|
+------------------------------------------------------------------------------+
|        Ref. Viscosity|     1.716e-05|             1|   N.s/m^2|     1.716e-05|
|      Sutherland Temp.|        273.15|             1|         K|        273.15|
|     Sutherland Const.|         110.4|             1|         K|         110.4|
+------------------------------------------------------------------------------+
|        Prandtl (Lam.)|             -|             -|         -|          0.71|
|       Prandtl (Turb.)|             -|             -|         -|           0.9|
+------------------------------------------------------------------------------+
|          Gas Constant|       287.058|             1|  N.m/kg.K|       287.058|
|      Spec. Heat Ratio|             -|             -|         -|           1.4|
+------------------------------------------------------------------------------+
-- Initial and free-stream conditions:
+------------------------------------------------------------------------------+
|                  Name|    Dim. value|    Ref. value|      Unit|Non-dim. value|
+------------------------------------------------------------------------------+
|       Static Pressure|         38515|             1|        Pa|         38515|
|               Density|      0.465631|             1|    kg/m^3|      0.465631|
|           Temperature|        288.15|             1|         K|        288.15|
|          Total Energy|        237984|             1|   m^2/s^2|        237984|
|            Velocity-X|       249.483|             1|       m/s|       249.483|
|            Velocity-Y|        12.133|             1|       m/s|        12.133|
|    Velocity Magnitude|       249.778|             1|       m/s|       249.778|
+------------------------------------------------------------------------------+
|             Viscosity|    1.7893e-05|             1|   N.s/m^2|    1.7893e-05|
|          Conductivity|             -|             1|   W/m^2.K|             -|
|     Turb. Kin. Energy|       233.959|             1|   m^2/s^2|       233.959|
|     Spec. Dissipation|        608834|             1|       1/s|        608834|
+------------------------------------------------------------------------------+
|           Mach Number|             -|             -|         -|         0.734|
|       Reynolds Number|             -|             -|         -|       6.5e+06|
+------------------------------------------------------------------------------+
Initialize Jacobian structure (Navier-Stokes). MG level: 0.
Initialize Jacobian structure (SA model).

------------------- Numerics Preprocessing ( Zone 0 ) -------------------

----------------- Integration Preprocessing ( Zone 0 ) ------------------

------------------- Iteration Preprocessing ( Zone 0 ) ------------------
Euler/Navier-Stokes/RANS fluid iteration.

------------------------------ Begin Solver -----------------------------

Simulation Run using the Single-zone Driver
WARNING: SU2 was not compiled for an AVX-capable architecture. Performance could be better,
         see https://su2code.github.io/docs_v7/Build-SU2-Linux-MacOS/#compiler-optimizations
+----------------------------------------------------------------+
|  Inner_Iter|    rms[Rho]|     rms[nu]|          CL|          CD|
+----------------------------------------------------------------+
|           0|   -4.860003|   -6.010265|    0.823981|    0.011991|
|           1|   -4.916134|   -6.101244|    0.823952|    0.011974|
|           2|   -4.973264|   -6.205543|    0.823923|    0.011968|
|           3|   -5.013467|   -6.318445|    0.823899|    0.011968|
|           4|   -5.040736|   -6.435975|    0.823883|    0.011970|
|           5|   -5.059934|   -6.548654|    0.823874|    0.011970|
|           6|   -5.072716|   -6.636610|    0.823869|    0.011968|
|           7|   -5.080007|   -6.679271|    0.823868|    0.011966|
|           8|   -5.082654|   -6.680393|    0.823868|    0.011962|
|           9|   -5.080778|   -6.663306|    0.823871|    0.011959|
|          10|   -5.073909|   -6.645405|    0.823877|    0.011957|
|          11|   -5.061961|   -6.632428|    0.823885|    0.011957|
|          12|   -5.045889|   -6.623826|    0.823896|    0.011957|
|          13|   -5.027512|   -6.617319|    0.823908|    0.011959|
|          14|   -5.008862|   -6.611133|    0.823922|    0.011962|
|          15|   -4.991655|   -6.604412|    0.823935|    0.011966|
|          16|   -4.977043|   -6.596596|    0.823948|    0.011971|
|          17|   -4.965578|   -6.586805|    0.823960|    0.011976|
|          18|   -4.957272|   -6.573961|    0.823969|    0.011981|
|          19|   -4.951703|   -6.557492|    0.823976|    0.011987|
|          20|   -4.948162|   -6.537952|    0.823980|    0.011992|
|          21|   -4.945824|   -6.516984|    0.823982|    0.011997|
|          22|   -4.943917|   -6.496701|    0.823981|    0.012001|
|          23|   -4.941857|   -6.479007|    0.823978|    0.012005|
|          24|   -4.939304|   -6.465231|    0.823973|    0.012008|
|          25|   -4.936149|   -6.456066|    0.823966|    0.012010|
|          26|   -4.932435|   -6.451668|    0.823958|    0.012012|
|          27|   -4.928290|   -6.451803|    0.823949|    0.012014|
|          28|   -4.923872|   -6.455959|    0.823939|    0.012016|
|          29|   -4.919338|   -6.463419|    0.823930|    0.012017|
|          30|   -4.914840|   -6.473315|    0.823920|    0.012018|
|          31|   -4.910519|   -6.484664|    0.823912|    0.012019|
|          32|   -4.906502|   -6.496414|    0.823903|    0.012019|
|          33|   -4.902899|   -6.507513|    0.823896|    0.012020|
|          34|   -4.899789|   -6.517013|    0.823889|    0.012021|
|          35|   -4.897224|   -6.524182|    0.823883|    0.012021|
|          36|   -4.895218|   -6.528591|    0.823877|    0.012022|
|          37|   -4.893760|   -6.530153|    0.823872|    0.012022|
|          38|   -4.892807|   -6.529085|    0.823868|    0.012023|
|          39|   -4.892295|   -6.525822|    0.823864|    0.012023|
|          40|   -4.892155|   -6.520907|    0.823860|    0.012024|
|          41|   -4.892312|   -6.514915|    0.823856|    0.012024|
|          42|   -4.892700|   -6.508394|    0.823853|    0.012024|
|          43|   -4.893261|   -6.501847|    0.823849|    0.012024|
|          44|   -4.893954|   -6.495727|    0.823846|    0.012024|
|          45|   -4.894746|   -6.490430|    0.823842|    0.012024|
|          46|   -4.895618|   -6.486294|    0.823839|    0.012024|
|          47|   -4.896561|   -6.483588|    0.823835|    0.012024|
|          48|   -4.897575|   -6.482496|    0.823832|    0.012024|
|          49|   -4.898665|   -6.483109|    0.823829|    0.012024|
|          50|   -4.899843|   -6.485415|    0.823826|    0.012024|
|          51|   -4.901125|   -6.489293|    0.823823|    0.012024|
|          52|   -4.902530|   -6.494523|    0.823820|    0.012024|
|          53|   -4.904079|   -6.500798|    0.823818|    0.012025|
|          54|   -4.905794|   -6.507746|    0.823816|    0.012025|
|          55|   -4.907694|   -6.514965|    0.823815|    0.012025|
|          56|   -4.909796|   -6.522062|    0.823813|    0.012025|
|          57|   -4.912113|   -6.528688|    0.823812|    0.012025|
|          58|   -4.914649|   -6.534577|    0.823811|    0.012026|
|          59|   -4.917404|   -6.539561|    0.823810|    0.012026|
|          60|   -4.920365|   -6.543582|    0.823810|    0.012026|
|          61|   -4.923509|   -6.546680|    0.823809|    0.012026|
|          62|   -4.926807|   -6.548971|    0.823808|    0.012027|
|          63|   -4.930226|   -6.550622|    0.823807|    0.012027|
|          64|   -4.933734|   -6.551820|    0.823807|    0.012027|
|          65|   -4.937304|   -6.552751|    0.823806|    0.012027|
|          66|   -4.940916|   -6.553579|    0.823805|    0.012027|
|          67|   -4.944562|   -6.554436|    0.823803|    0.012027|
|          68|   -4.948247|   -6.555412|    0.823802|    0.012027|
|          69|   -4.951980|   -6.556559|    0.823801|    0.012028|
|          70|   -4.955775|   -6.557892|    0.823800|    0.012028|
|          71|   -4.959645|   -6.559396|    0.823799|    0.012028|
|          72|   -4.963596|   -6.561040|    0.823798|    0.012028|
|          73|   -4.967627|   -6.562783|    0.823797|    0.012028|
|          74|   -4.971722|   -6.564591|    0.823796|    0.012029|
|          75|   -4.975859|   -6.566441|    0.823795|    0.012029|
|          76|   -4.980005|   -6.568329|    0.823794|    0.012030|
|          77|   -4.984131|   -6.570269|    0.823793|    0.012030|
|          78|   -4.988206|   -6.572291|    0.823792|    0.012031|
|          79|   -4.992211|   -6.574436|    0.823791|    0.012031|
|          80|   -4.996135|   -6.576753|    0.823789|    0.012032|
|          81|   -4.999979|   -6.579286|    0.823788|    0.012032|
|          82|   -5.003754|   -6.582073|    0.823787|    0.012033|
|          83|   -5.007476|   -6.585145|    0.823786|    0.012034|
|          84|   -5.011161|   -6.588524|    0.823784|    0.012034|
|          85|   -5.014826|   -6.592220|    0.823783|    0.012035|
|          86|   -5.018476|   -6.596234|    0.823781|    0.012035|
|          87|   -5.022112|   -6.600564|    0.823779|    0.012036|
|          88|   -5.025720|   -6.605203|    0.823778|    0.012036|
|          89|   -5.029278|   -6.610141|    0.823776|    0.012037|
|          90|   -5.032756|   -6.615365|    0.823774|    0.012037|
|          91|   -5.036117|   -6.620860|    0.823773|    0.012038|
|          92|   -5.039323|   -6.626610|    0.823772|    0.012039|
|          93|   -5.042334|   -6.632602|    0.823771|    0.012039|
|          94|   -5.045113|   -6.638817|    0.823770|    0.012040|
|          95|   -5.047628|   -6.645235|    0.823769|    0.012040|
|          96|   -5.049851|   -6.651835|    0.823768|    0.012041|
|          97|   -5.051761|   -6.658596|    0.823768|    0.012042|
|          98|   -5.053346|   -6.665491|    0.823768|    0.012043|
|          99|   -5.054599|   -6.672493|    0.823768|    0.012043|
|         100|   -5.055525|   -6.679568|    0.823768|    0.012044|
|         101|   -5.056136|   -6.686682|    0.823769|    0.012062|
+-----------------------------------------------------------------------+
|Fixed CL Mode                           |Value                         |
+-----------------------------------------------------------------------+
|Current CL                              |0.823769                      |
|Target CL                               |0.824                         |
|Previous AOA                            |2.78424                       |
|Changed AoA by                          |0.00115819                    |
+-----------------------------------------------------------------------+
+----------------------------------------------------------------+
|  Inner_Iter|    rms[Rho]|     rms[nu]|          CL|          CD|
+----------------------------------------------------------------+
|         102|   -3.129576|   -6.676425|    0.823769|    0.012063|
|         103|   -3.514257|   -6.691991|    0.823770|    0.012064|
|         104|   -3.759483|   -6.701389|    0.823771|    0.012065|
|         105|   -3.839388|   -6.709493|    0.823772|    0.012066|
|         106|   -3.893598|   -6.717015|    0.823772|    0.012067|
|         107|   -3.963621|   -6.724096|    0.823773|    0.012069|
|         108|   -4.049993|   -6.730757|    0.823774|    0.012070|
|         109|   -4.139736|   -6.736990|    0.823774|    0.012071|
|         110|   -4.216031|   -6.742787|    0.823775|    0.012072|
|         111|   -4.270582|   -6.748137|    0.823775|    0.012074|
|         112|   -4.305535|   -6.753036|    0.823775|    0.012075|
|         113|   -4.325266|   -6.757511|    0.823774|    0.012076|
|         114|   -4.333908|   -6.761603|    0.823774|    0.012077|
|         115|   -4.337250|   -6.765354|    0.823773|    0.012079|
|         116|   -4.341628|   -6.768788|    0.823772|    0.012080|
|         117|   -4.351228|   -6.771922|    0.823771|    0.012081|
|         118|   -4.366951|   -6.774775|    0.823769|    0.012082|
|         119|   -4.386969|   -6.777378|    0.823768|    0.012083|
|         120|   -4.408168|   -6.779769|    0.823766|    0.012084|
|         121|   -4.427937|   -6.781995|    0.823764|    0.012085|
|         122|   -4.445420|   -6.784100|    0.823762|    0.012086|
|         123|   -4.461434|   -6.786126|    0.823760|    0.012087|
|         124|   -4.477343|   -6.788110|    0.823757|    0.012088|
|         125|   -4.493988|   -6.790091|    0.823755|    0.012088|
|         126|   -4.511328|   -6.792109|    0.823753|    0.012089|
|         127|   -4.528668|   -6.794199|    0.823751|    0.012090|
|         128|   -4.545069|   -6.796392|    0.823749|    0.012090|
|         129|   -4.559680|   -6.798723|    0.823747|    0.012091|
|         130|   -4.571912|   -6.801215|    0.823745|    0.012092|
|         131|   -4.581550|   -6.803898|    0.823744|    0.012092|
|         132|   -4.588822|   -6.806792|    0.823742|    0.012093|
|         133|   -4.594395|   -6.809910|    0.823741|    0.012094|
|         134|   -4.599222|   -6.813268|    0.823740|    0.012094|
|         135|   -4.604305|   -6.816876|    0.823740|    0.012095|
|         136|   -4.610461|   -6.820742|    0.823739|    0.012096|
|         137|   -4.618180|   -6.824874|    0.823739|    0.012097|
|         138|   -4.627570|   -6.829276|    0.823739|    0.012097|
|         139|   -4.638368|   -6.833948|    0.823739|    0.012098|
|         140|   -4.649984|   -6.838886|    0.823740|    0.012099|
|         141|   -4.661609|   -6.844084|    0.823741|    0.012100|
|         142|   -4.672372|   -6.849537|    0.823742|    0.012101|
|         143|   -4.681565|   -6.855234|    0.823743|    0.012102|
|         144|   -4.688847|   -6.861165|    0.823744|    0.012103|
|         145|   -4.694348|   -6.867318|    0.823746|    0.012104|
|         146|   -4.698609|   -6.873675|    0.823748|    0.012105|
|         147|   -4.702396|   -6.880224|    0.823750|    0.012106|
|         148|   -4.706473|   -6.886960|    0.823752|    0.012107|
|         149|   -4.711426|   -6.893861|    0.823755|    0.012108|
|         150|   -4.717574|   -6.900909|    0.823758|    0.012109|
|         151|   -4.724954|   -6.908084|    0.823761|    0.012110|
|         152|   -4.733369|   -6.915376|    0.823765|    0.012111|
|         153|   -4.742467|   -6.922777|    0.823769|    0.012111|
|         154|   -4.751833|   -6.930284|    0.823773|    0.012112|
|         155|   -4.761081|   -6.937890|    0.823778|    0.012113|
|         156|   -4.769931|   -6.945579|    0.823783|    0.012114|
|         157|   -4.778249|   -6.953328|    0.823788|    0.012115|
|         158|   -4.786041|   -6.961113|    0.823793|    0.012115|
|         159|   -4.793428|   -6.968913|    0.823799|    0.012116|
|         160|   -4.800585|   -6.976702|    0.823806|    0.012117|
|         161|   -4.807696|   -6.984453|    0.823813|    0.012118|
|         162|   -4.814909|   -6.992131|    0.823820|    0.012118|
|         163|   -4.822320|   -6.999695|    0.823827|    0.012119|
|         164|   -4.829969|   -7.007103|    0.823835|    0.012119|
|         165|   -4.837851|   -7.014313|    0.823843|    0.012120|
|         166|   -4.845936|   -7.021278|    0.823851|    0.012120|
|         167|   -4.854180|   -7.027950|    0.823859|    0.012121|
|         168|   -4.862542|   -7.034280|    0.823867|    0.012121|
|         169|   -4.870990|   -7.040215|    0.823876|    0.012122|
|         170|   -4.879505|   -7.045700|    0.823884|    0.012122|
|         171|   -4.888073|   -7.050687|    0.823892|    0.012123|
|         172|   -4.896687|   -7.055133|    0.823901|    0.012123|
|         173|   -4.905334|   -7.058987|    0.823909|    0.012123|
|         174|   -4.914002|   -7.062207|    0.823916|    0.012124|
|         175|   -4.922669|   -7.064755|    0.823924|    0.012124|
|         176|   -4.931306|   -7.066599|    0.823931|    0.012124|
|         177|   -4.939879|   -7.067718|    0.823937|    0.012124|
|         178|   -4.948349|   -7.068109|    0.823944|    0.012125|
|         179|   -4.956674|   -7.067774|    0.823949|    0.012125|
|         180|   -4.964810|   -7.066729|    0.823954|    0.012125|
|         181|   -4.972714|   -7.065009|    0.823959|    0.012125|
|         182|   -4.980341|   -7.062658|    0.823963|    0.012125|
|         183|   -4.987647|   -7.059738|    0.823966|    0.012125|
|         184|   -4.994592|   -7.056329|    0.823969|    0.012125|
|         185|   -5.001137|   -7.052514|    0.823971|    0.012125|
|         186|   -5.007248|   -7.048379|    0.823972|    0.012124|
|         187|   -5.012895|   -7.044008|    0.823973|    0.012124|
|         188|   -5.018060|   -7.039498|    0.823973|    0.012124|
|         189|   -5.022728|   -7.034949|    0.823973|    0.012124|
|         190|   -5.026897|   -7.030451|    0.823972|    0.012123|
|         191|   -5.030580|   -7.026083|    0.823970|    0.012123|
|         192|   -5.033795|   -7.021915|    0.823968|    0.012123|
|         193|   -5.036571|   -7.018003|    0.823966|    0.012122|
|         194|   -5.038945|   -7.014390|    0.823963|    0.012122|
|         195|   -5.040963|   -7.011108|    0.823960|    0.012121|
|         196|   -5.042676|   -7.008171|    0.823956|    0.012121|
|         197|   -5.044144|   -7.005592|    0.823952|    0.012120|
|         198|   -5.045425|   -7.003377|    0.823948|    0.012120|
|         199|   -5.046587|   -7.001524|    0.823943|    0.012119|
|         200|   -5.047696|   -7.000023|    0.823939|    0.012119|
|         201|   -5.048818|   -6.998861|    0.823934|    0.012123|
+-----------------------------------------------------------------------+
|Fixed CL Mode                           |Value                         |
+-----------------------------------------------------------------------+
|Current CL                              |0.823934                      |
|Target CL                               |0.824                         |
|Previous AOA                            |2.7854                        |
|Changed AoA by                          |0.000305597                   |
+-----------------------------------------------------------------------+
+----------------------------------------------------------------+
|  Inner_Iter|    rms[Rho]|     rms[nu]|          CL|          CD|
+----------------------------------------------------------------+
|         202|   -3.707630|   -6.992641|    0.823929|    0.012122|
|         203|   -4.087068|   -6.994660|    0.823925|    0.012122|
|         204|   -4.318272|   -6.995107|    0.823920|    0.012121|
|         205|   -4.391117|   -6.995420|    0.823915|    0.012120|
|         206|   -4.442305|   -6.995775|    0.823910|    0.012120|
|         207|   -4.507979|   -6.996187|    0.823906|    0.012119|
|         208|   -4.587060|   -6.996624|    0.823901|    0.012119|
|         209|   -4.667247|   -6.997060|    0.823897|    0.012118|
|         210|   -4.734887|   -6.997448|    0.823893|    0.012118|
|         211|   -4.784711|   -6.997763|    0.823889|    0.012117|
|         212|   -4.819123|   -6.997971|    0.823885|    0.012117|
|         213|   -4.841251|   -6.998062|    0.823882|    0.012116|
|         214|   -4.853669|   -6.998029|    0.823878|    0.012116|
|         215|   -4.860454|   -6.997865|    0.823875|    0.012116|
|         216|   -4.866664|   -6.997563|    0.823873|    0.012115|
|         217|   -4.876037|   -6.997124|    0.823870|    0.012115|
|         218|   -4.889765|   -6.996550|    0.823868|    0.012114|
|         219|   -4.906831|   -6.995855|    0.823866|    0.012114|
|         220|   -4.925221|   -6.995059|    0.823865|    0.012114|
|         221|   -4.943295|   -6.994183|    0.823864|    0.012114|
|         222|   -4.960596|   -6.993253|    0.823863|    0.012114|
|         223|   -4.977677|   -6.992295|    0.823863|    0.012113|
|         224|   -4.995297|   -6.991329|    0.823863|    0.012113|
|         225|   -5.013715|   -6.990379|    0.823863|    0.012113|
|         226|   -5.032485|   -6.989468|    0.823863|    0.012113|
|         227|   -5.050684|   -6.988614|    0.823864|    0.012113|
|         228|   -5.067302|   -6.987833|    0.823865|    0.012113|
|         229|   -5.081567|   -6.987138|    0.823867|    0.012113|
|         230|   -5.093108|   -6.986542|    0.823869|    0.012113|
|         231|   -5.101992|   -6.986059|    0.823871|    0.012113|
|         232|   -5.108693|   -6.985696|    0.823873|    0.012113|
|         233|   -5.113982|   -6.985452|    0.823876|    0.012113|
|         234|   -5.118756|   -6.985320|    0.823879|    0.012114|
|         235|   -5.123829|   -6.985312|    0.823882|    0.012114|
|         236|   -5.129781|   -6.985431|    0.823885|    0.012114|
|         237|   -5.136870|   -6.985682|    0.823889|    0.012114|
|         238|   -5.145028|   -6.986067|    0.823892|    0.012114|
|         239|   -5.153899|   -6.986587|    0.823896|    0.012115|
|         240|   -5.162918|   -6.987248|    0.823901|    0.012115|
|         241|   -5.171423|   -6.988046|    0.823905|    0.012115|
|         242|   -5.178801|   -6.988980|    0.823909|    0.012115|
|         243|   -5.184654|   -6.990054|    0.823914|    0.012116|
|         244|   -5.188905|   -6.991271|    0.823919|    0.012116|
|         245|   -5.191823|   -6.992629|    0.823923|    0.012116|
|         246|   -5.193933|   -6.994127|    0.823928|    0.012117|
|         247|   -5.195864|   -6.995768|    0.823933|    0.012117|
|         248|   -5.198193|   -6.997551|    0.823938|    0.012117|
|         249|   -5.201336|   -6.999477|    0.823943|    0.012118|
|         250|   -5.205500|   -7.001548|    0.823948|    0.012118|
|         251|   -5.210690|   -7.003769|    0.823952|    0.012118|
|         252|   -5.216750|   -7.006142|    0.823957|    0.012118|
|         253|   -5.223430|   -7.008664|    0.823962|    0.012119|
|         254|   -5.230456|   -7.011335|    0.823967|    0.012119|
|         255|   -5.237586|   -7.014154|    0.823971|    0.012119|
|         256|   -5.244656|   -7.017116|    0.823976|    0.012119|
|         257|   -5.251594|   -7.020219|    0.823981|    0.012120|
|         258|   -5.258419|   -7.023458|    0.823985|    0.012120|
|         259|   -5.265215|   -7.026829|    0.823990|    0.012120|
|         260|   -5.272097|   -7.030334|    0.823994|    0.012120|
|         261|   -5.279175|   -7.033967|    0.823998|    0.012120|
|         262|   -5.286537|   -7.037722|    0.824002|    0.012120|
|         263|   -5.294235|   -7.041594|    0.824006|    0.012120|
|         264|   -5.302294|   -7.045577|    0.824010|    0.012121|
|         265|   -5.310705|   -7.049668|    0.824014|    0.012121|
|         266|   -5.319443|   -7.053863|    0.824018|    0.012121|
|         267|   -5.328471|   -7.058162|    0.824022|    0.012121|
|         268|   -5.337753|   -7.062564|    0.824026|    0.012121|
|         269|   -5.347252|   -7.067069|    0.824029|    0.012121|
|         270|   -5.356930|   -7.071685|    0.824033|    0.012121|
|         271|   -5.366752|   -7.076414|    0.824036|    0.012120|
|         272|   -5.376675|   -7.081261|    0.824039|    0.012120|
|         273|   -5.386637|   -7.086236|    0.824042|    0.012120|
|         274|   -5.396582|   -7.091348|    0.824046|    0.012120|
|         275|   -5.406433|   -7.096607|    0.824049|    0.012120|
|         276|   -5.416103|   -7.102024|    0.824051|    0.012120|
|         277|   -5.425496|   -7.107612|    0.824054|    0.012120|
|         278|   -5.434513|   -7.113380|    0.824057|    0.012120|
|         279|   -5.443058|   -7.119342|    0.824060|    0.012119|
|         280|   -5.451040|   -7.125509|    0.824062|    0.012119|
|         281|   -5.458382|   -7.131890|    0.824064|    0.012119|
|         282|   -5.465022|   -7.138494|    0.824067|    0.012119|
|         283|   -5.470915|   -7.145327|    0.824069|    0.012119|
|         284|   -5.476039|   -7.152394|    0.824071|    0.012119|
|         285|   -5.480391|   -7.159697|    0.824072|    0.012118|
|         286|   -5.483988|   -7.167236|    0.824074|    0.012118|
|         287|   -5.486869|   -7.175010|    0.824076|    0.012118|
|         288|   -5.489077|   -7.183014|    0.824077|    0.012118|
|         289|   -5.490683|   -7.191242|    0.824078|    0.012118|
|         290|   -5.491763|   -7.199688|    0.824079|    0.012118|
|         291|   -5.492390|   -7.208343|    0.824080|    0.012117|
|         292|   -5.492644|   -7.217198|    0.824081|    0.012117|
|         293|   -5.492598|   -7.226244|    0.824082|    0.012117|
|         294|   -5.492325|   -7.235470|    0.824082|    0.012117|
|         295|   -5.491891|   -7.244870|    0.824083|    0.012117|
|         296|   -5.491355|   -7.254435|    0.824083|    0.012116|
|         297|   -5.490769|   -7.264158|    0.824083|    0.012116|
|         298|   -5.490179|   -7.274033|    0.824083|    0.012116|
|         299|   -5.489621|   -7.284053|    0.824083|    0.012116|
|         300|   -5.489128|   -7.294213|    0.824083|    0.012116|
|         301|   -5.488726|   -7.304507|    0.824082|    0.012110|
+-----------------------------------------------------------------------+
|Fixed CL Mode                           |Value                         |
+-----------------------------------------------------------------------+
|Current CL                              |0.824082                      |
|Target CL                               |0.824                         |
|Previous AOA                            |2.78571                       |
|Changed AoA by                          |-0.000412968                  |
+-----------------------------------------------------------------------+
+----------------------------------------------------------------+
|  Inner_Iter|    rms[Rho]|     rms[nu]|          CL|          CD|
+----------------------------------------------------------------+
|         302|   -3.577441|   -7.278302|    0.824082|    0.012109|
|         303|   -3.962617|   -7.306173|    0.824081|    0.012109|
|         304|   -4.209580|   -7.321814|    0.824081|    0.012109|
|         305|   -4.290544|   -7.335094|    0.824080|    0.012109|
|         306|   -4.345131|   -7.347610|    0.824079|    0.012109|
|         307|   -4.415508|   -7.359699|    0.824079|    0.012108|
|         308|   -4.502325|   -7.371428|    0.824078|    0.012108|
|         309|   -4.592311|   -7.382800|    0.824077|    0.012108|
|         310|   -4.668074|   -7.393793|    0.824076|    0.012108|
|         311|   -4.721084|   -7.404346|    0.824076|    0.012107|
|         312|   -4.753899|   -7.414409|    0.824075|    0.012107|
|         313|   -4.771532|   -7.423985|    0.824074|    0.012107|
|         314|   -4.778593|   -7.433115|    0.824073|    0.012107|
|         315|   -4.781000|   -7.441824|    0.824073|    0.012107|
|         316|   -4.784933|   -7.450090|    0.824072|    0.012106|
|         317|   -4.794344|   -7.457861|    0.824072|    0.012106|
|         318|   -4.809955|   -7.465084|    0.824071|    0.012106|
|         319|   -4.829824|   -7.471733|    0.824071|    0.012106|
|         320|   -4.850764|   -7.477811|    0.824071|    0.012106|
|         321|   -4.870110|   -7.483333|    0.824071|    0.012105|
|         322|   -4.886982|   -7.488320|    0.824071|    0.012105|
|         323|   -4.902210|   -7.492796|    0.824071|    0.012105|
|         324|   -4.917210|   -7.496798|    0.824071|    0.012105|
|         325|   -4.932920|   -7.500380|    0.824072|    0.012105|
|         326|   -4.949436|   -7.503621|    0.824072|    0.012105|
|         327|   -4.966217|   -7.506612|    0.824073|    0.012105|
|         328|   -4.982463|   -7.509462|    0.824074|    0.012105|
|         329|   -4.997401|   -7.512276|    0.824074|    0.012105|
|         330|   -5.010436|   -7.515153|    0.824075|    0.012105|
|         331|   -5.021262|   -7.518185|    0.824076|    0.012105|
|         332|   -5.029966|   -7.521449|    0.824077|    0.012105|
|         333|   -5.037069|   -7.525004|    0.824078|    0.012105|
|         334|   -5.043418|   -7.528893|    0.824079|    0.012105|
|         335|   -5.049975|   -7.533138|    0.824080|    0.012105|
|         336|   -5.057581|   -7.537741|    0.824082|    0.012105|
|         337|   -5.066796|   -7.542686|    0.824083|    0.012105|
|         338|   -5.077822|   -7.547940|    0.824084|    0.012105|
|         339|   -5.090484|   -7.553454|    0.824085|    0.012105|
|         340|   -5.104266|   -7.559165|    0.824086|    0.012105|
|         341|   -5.118382|   -7.565001|    0.824087|    0.012106|
|         342|   -5.131925|   -7.570877|    0.824088|    0.012106|
|         343|   -5.144088|   -7.576709|    0.824089|    0.012106|
|         344|   -5.154392|   -7.582409|    0.824090|    0.012106|
|         345|   -5.162837|   -7.587895|    0.824090|    0.012106|
|         346|   -5.169885|   -7.593090|    0.824091|    0.012107|
|         347|   -5.176292|   -7.597926|    0.824091|    0.012107|
|         348|   -5.182864|   -7.602344|    0.824091|    0.012107|
|         349|   -5.190258|   -7.606299|    0.824091|    0.012107|
|         350|   -5.198854|   -7.609760|    0.824091|    0.012108|
|         351|   -5.208727|   -7.612716|    0.824091|    0.012108|
|         352|   -5.219679|   -7.615173|    0.824090|    0.012108|
|         353|   -5.231317|   -7.617161|    0.824090|    0.012108|
|         354|   -5.243156|   -7.618712|    0.824089|    0.012108|
|         355|   -5.254727|   -7.619878|    0.824088|    0.012109|
|         356|   -5.265671|   -7.620709|    0.824086|    0.012109|
|         357|   -5.275804|   -7.621268|    0.824085|    0.012109|
|         358|   -5.285122|   -7.621623|    0.824083|    0.012109|
|         359|   -5.293770|   -7.621837|    0.824081|    0.012109|
|         360|   -5.301974|   -7.621971|    0.824079|    0.012109|
|         361|   -5.309981|   -7.622078|    0.824077|    0.012109|
|         362|   -5.317999|   -7.622198|    0.824075|    0.012109|
|         363|   -5.326175|   -7.622363|    0.824072|    0.012109|
|         364|   -5.334589|   -7.622591|    0.824069|    0.012109|
|         365|   -5.343265|   -7.622886|    0.824067|    0.012109|
|         366|   -5.352191|   -7.623239|    0.824064|    0.012110|
|         367|   -5.361340|   -7.623628|    0.824061|    0.012109|
|         368|   -5.370686|   -7.624021|    0.824058|    0.012109|
|         369|   -5.380211|   -7.624374|    0.824056|    0.012109|
|         370|   -5.389905|   -7.624633|    0.824053|    0.012109|
|         371|   -5.399764|   -7.624741|    0.824050|    0.012109|
|         372|   -5.409782|   -7.624638|    0.824047|    0.012109|
|         373|   -5.419944|   -7.624263|    0.824045|    0.012109|
|         374|   -5.430221|   -7.623563|    0.824042|    0.012109|
|         375|   -5.440570|   -7.622491|    0.824040|    0.012109|
|         376|   -5.450932|   -7.621012|    0.824038|    0.012109|
|         377|   -5.461234|   -7.619108|    0.824036|    0.012109|
|         378|   -5.471396|   -7.616774|    0.824034|    0.012109|
|         379|   -5.481330|   -7.614024|    0.824032|    0.012109|
|         380|   -5.490949|   -7.610888|    0.824031|    0.012108|
|         381|   -5.500165|   -7.607412|    0.824030|    0.012108|
|         382|   -5.508898|   -7.603656|    0.824029|    0.012108|
|         383|   -5.517072|   -7.599687|    0.824028|    0.012108|
|         384|   -5.524622|   -7.595581|    0.824028|    0.012108|
|         385|   -5.531495|   -7.591419|    0.824028|    0.012108|
|         386|   -5.537653|   -7.587283|    0.824028|    0.012108|
|         387|   -5.543072|   -7.583251|    0.824028|    0.012108|
|         388|   -5.547746|   -7.579396|    0.824029|    0.012107|
|         389|   -5.551689|   -7.575788|    0.824029|    0.012107|
|         390|   -5.554927|   -7.572484|    0.824030|    0.012107|
|         391|   -5.557504|   -7.569534|    0.824031|    0.012107|
|         392|   -5.559474|   -7.566977|    0.824033|    0.012107|
|         393|   -5.560901|   -7.564844|    0.824034|    0.012107|
|         394|   -5.561854|   -7.563152|    0.824036|    0.012106|
|         395|   -5.562405|   -7.561911|    0.824038|    0.012106|
|         396|   -5.562626|   -7.561118|    0.824039|    0.012106|
|         397|   -5.562586|   -7.560763|    0.824041|    0.012106|
|         398|   -5.562350|   -7.560829|    0.824043|    0.012106|
|         399|   -5.561976|   -7.561289|    0.824046|    0.012106|
|         400|   -5.561520|   -7.562114|    0.824048|    0.012105|
|         401|   -5.561027|   -7.563266|    0.824050|    0.012102|
+-----------------------------------------------------------------------+
|Fixed CL Mode                           |Value                         |
+-----------------------------------------------------------------------+
|Current CL                              |0.82405                       |
|Target CL                               |0.824                         |
|Previous AOA                            |2.7853                        |
|Changed AoA by                          |-0.000238764                  |
+-----------------------------------------------------------------------+
+----------------------------------------------------------------+
|  Inner_Iter|    rms[Rho]|     rms[nu]|          CL|          CD|
+----------------------------------------------------------------+
|         402|   -3.815246|   -7.524985|    0.824052|    0.012102|
|         403|   -4.198311|   -7.545791|    0.824055|    0.012101|
|         404|   -4.439029|   -7.553588|    0.824057|    0.012101|
|         405|   -4.516715|   -7.558856|    0.824060|    0.012101|
|         406|   -4.570283|   -7.563249|    0.824062|    0.012101|
|         407|   -4.639599|   -7.567148|    0.824064|    0.012101|
|         408|   -4.724913|   -7.570682|    0.824067|    0.012100|
|         409|   -4.813734|   -7.573927|    0.824069|    0.012100|
|         410|   -4.890247|   -7.576929|    0.824071|    0.012100|
|         411|   -4.946660|   -7.579693|    0.824074|    0.012100|
|         412|   -4.984577|   -7.582230|    0.824076|    0.012100|
|         413|   -5.007440|   -7.584583|    0.824078|    0.012100|
|         414|   -5.018603|   -7.586814|    0.824080|    0.012099|
|         415|   -5.023497|   -7.588973|    0.824083|    0.012099|
|         416|   -5.028549|   -7.591076|    0.824085|    0.012099|
|         417|   -5.038231|   -7.593121|    0.824087|    0.012099|
|         418|   -5.053732|   -7.595112|    0.824089|    0.012099|
|         419|   -5.073475|   -7.597068|    0.824090|    0.012099|
|         420|   -5.094588|   -7.599014|    0.824092|    0.012099|
|         421|   -5.114668|   -7.600977|    0.824094|    0.012099|
|         422|   -5.132970|   -7.602967|    0.824095|    0.012098|
|         423|   -5.150299|   -7.604984|    0.824097|    0.012098|
|         424|   -5.167913|   -7.607021|    0.824098|    0.012098|
|         425|   -5.186487|   -7.609069|    0.824100|    0.012098|
|         426|   -5.205780|   -7.611120|    0.824101|    0.012098|
|         427|   -5.224871|   -7.613173|    0.824102|    0.012098|
|         428|   -5.242614|   -7.615232|    0.824103|    0.012098|
|         429|   -5.258020|   -7.617304|    0.824104|    0.012098|
|         430|   -5.270482|   -7.619399|    0.824105|    0.012098|
|         431|   -5.279892|   -7.621528|    0.824105|    0.012098|
|         432|   -5.286673|   -7.623703|    0.824106|    0.012098|
|         433|   -5.291706|   -7.625930|    0.824106|    0.012098|
|         434|   -5.296118|   -7.628216|    0.824107|    0.012098|
|         435|   -5.301011|   -7.630563|    0.824107|    0.012098|
|         436|   -5.307226|   -7.632970|    0.824107|    0.012098|
|         437|   -5.315219|   -7.635435|    0.824107|    0.012098|
|         438|   -5.325024|   -7.637957|    0.824107|    0.012098|
|         439|   -5.336282|   -7.640534|    0.824107|    0.012098|
|         440|   -5.348296|   -7.643163|    0.824107|    0.012098|
|         441|   -5.360154|   -7.645845|    0.824107|    0.012098|
|         442|   -5.370902|   -7.648585|    0.824106|    0.012098|
|         443|   -5.379796|   -7.651387|    0.824106|    0.012098|
|         444|   -5.386512|   -7.654260|    0.824106|    0.012098|
|         445|   -5.391249|   -7.657213|    0.824105|    0.012099|
|         446|   -5.394640|   -7.660259|    0.824105|    0.012099|
|         447|   -5.397539|   -7.663406|    0.824104|    0.012099|
|         448|   -5.400772|   -7.666665|    0.824103|    0.012099|
|         449|   -5.404957|   -7.670044|    0.824102|    0.012099|
|         450|   -5.410420|   -7.673549|    0.824102|    0.012099|
|         451|   -5.417193|   -7.677182|    0.824101|    0.012099|
|         452|   -5.425070|   -7.680945|    0.824100|    0.012099|
|         453|   -5.433692|   -7.684838|    0.824099|    0.012100|
|         454|   -5.442647|   -7.688855|    0.824098|    0.012100|
|         455|   -5.451564|   -7.692991|    0.824097|    0.012100|
|         456|   -5.460185|   -7.697234|    0.824096|    0.012100|
|         457|   -5.468402|   -7.701576|    0.824095|    0.012100|
|         458|   -5.476251|   -7.706004|    0.824093|    0.012100|
|         459|   -5.483875|   -7.710508|    0.824092|    0.012100|
|         460|   -5.491471|   -7.715077|    0.824091|    0.012101|
|         461|   -5.499233|   -7.719700|    0.824089|    0.012101|
|         462|   -5.507322|   -7.724370|    0.824088|    0.012101|
|         463|   -5.515838|   -7.729080|    0.824086|    0.012101|
|         464|   -5.524826|   -7.733825|    0.824085|    0.012101|
|         465|   -5.534287|   -7.738605|    0.824083|    0.012101|
|         466|   -5.544189|   -7.743425|    0.824082|    0.012102|
|         467|   -5.554491|   -7.748294|    0.824080|    0.012102|
|         468|   -5.565153|   -7.753224|    0.824078|    0.012102|
|         469|   -5.576142|   -7.758236|    0.824077|    0.012102|
|         470|   -5.587434|   -7.763350|    0.824075|    0.012102|
|         471|   -5.599012|   -7.768593|    0.824073|    0.012102|
|         472|   -5.610860|   -7.773989|    0.824072|    0.012102|
|         473|   -5.622956|   -7.779566|    0.824070|    0.012102|
|         474|   -5.635268|   -7.785348|    0.824069|    0.012102|
|         475|   -5.647751|   -7.791354|    0.824067|    0.012102|
|         476|   -5.660348|   -7.797600|    0.824066|    0.012103|
|         477|   -5.672992|   -7.804092|    0.824064|    0.012103|
|         478|   -5.685607|   -7.810828|    0.824063|    0.012103|
|         479|   -5.698113|   -7.817794|    0.824061|    0.012103|
|         480|   -5.710429|   -7.824967|    0.824060|    0.012103|
|         481|   -5.722477|   -7.832309|    0.824059|    0.012103|
|         482|   -5.734182|   -7.839769|    0.824058|    0.012103|
|         483|   -5.745480|   -7.847289|    0.824057|    0.012103|
|         484|   -5.756313|   -7.854798|    0.824057|    0.012103|
|         485|   -5.766636|   -7.862223|    0.824056|    0.012103|
|         486|   -5.776415|   -7.869489|    0.824055|    0.012103|
|         487|   -5.785632|   -7.876521|    0.824055|    0.012103|
|         488|   -5.794281|   -7.883267|    0.824055|    0.012103|
|         489|   -5.802371|   -7.889684|    0.824055|    0.012102|
|         490|   -5.809923|   -7.895748|    0.824055|    0.012102|
|         491|   -5.816970|   -7.901456|    0.824055|    0.012102|
|         492|   -5.823552|   -7.906834|    0.824055|    0.012102|
|         493|   -5.829715|   -7.911933|    0.824055|    0.012102|
|         494|   -5.835510|   -7.916834|    0.824055|    0.012102|
|         495|   -5.840988|   -7.921639|    0.824056|    0.012102|
|         496|   -5.846199|   -7.926469|    0.824057|    0.012102|
|         497|   -5.851190|   -7.931461|    0.824057|    0.012102|
|         498|   -5.856004|   -7.936759|    0.824058|    0.012101|
|         499|   -5.860679|   -7.942507|    0.824059|    0.012101|
|         500|   -5.865248|   -7.948850|    0.824060|    0.012101|
|         501|   -5.869739|   -7.955920|    0.824061|    0.012097|
+-----------------------------------------------------------------------+
|Fixed CL Mode                           |Value                         |
+-----------------------------------------------------------------------+
|Current CL                              |0.824061                      |
|Target CL                               |0.824                         |
|Previous AOA                            |2.78506                       |
|Changed AoA by                          |-0.000298556                  |
+-----------------------------------------------------------------------+
+----------------------------------------------------------------+
|  Inner_Iter|    rms[Rho]|     rms[nu]|          CL|          CD|
+----------------------------------------------------------------+
|         502|   -3.718312|   -7.727763|    0.824062|    0.012096|
|         503|   -4.102002|   -7.821002|    0.824063|    0.012096|
|         504|   -4.343862|   -7.861652|    0.824064|    0.012096|
|         505|   -4.421770|   -7.890382|    0.824065|    0.012096|
|         506|   -4.475423|   -7.915623|    0.824066|    0.012096|
|         507|   -4.545261|   -7.939449|    0.824068|    0.012096|
|         508|   -4.631817|   -7.962495|    0.824069|    0.012096|
|         509|   -4.722802|   -7.984997|    0.824070|    0.012095|
|         510|   -4.802178|   -8.006971|    0.824071|    0.012095|
|         511|   -4.861460|   -8.028039|    0.824073|    0.012095|
|         512|   -4.901628|   -8.047738|    0.824074|    0.012095|
|         513|   -4.925811|   -8.065988|    0.824075|    0.012095|
|         514|   -4.937379|   -8.083074|    0.824076|    0.012095|
|         515|   -4.942165|   -8.099186|    0.824078|    0.012095|
|         516|   -4.947125|   -8.114095|    0.824079|    0.012094|
|         517|   -4.957077|   -8.127246|    0.824080|    0.012094|
|         518|   -4.973305|   -8.138153|    0.824081|    0.012094|
|         519|   -4.994124|   -8.146690|    0.824082|    0.012094|
|         520|   -5.016411|   -8.153040|    0.824083|    0.012094|
|         521|   -5.037499|   -8.157480|    0.824084|    0.012094|
|         522|   -5.056514|   -8.160146|    0.824085|    0.012094|
|         523|   -5.074315|   -8.161055|    0.824085|    0.012094|
|         524|   -5.092317|   -8.160129|    0.824086|    0.012094|
|         525|   -5.111345|   -8.157385|    0.824087|    0.012094|
|         526|   -5.131240|   -8.152892|    0.824087|    0.012094|
|         527|   -5.151104|   -8.146949|    0.824088|    0.012094|
|         528|   -5.169767|   -8.139857|    0.824088|    0.012094|
|         529|   -5.186184|   -8.131967|    0.824088|    0.012094|
|         530|   -5.199664|   -8.123645|    0.824089|    0.012094|
|         531|   -5.210012|   -8.115211|    0.824089|    0.012094|
|         532|   -5.217596|   -8.106905|    0.824089|    0.012094|
|         533|   -5.223301|   -8.098884|    0.824089|    0.012094|
|         534|   -5.228325|   -8.091253|    0.824089|    0.012094|
|         535|   -5.233878|   -8.084019|    0.824089|    0.012094|
|         536|   -5.240921|   -8.077158|    0.824089|    0.012094|
|         537|   -5.250014|   -8.070617|    0.824089|    0.012094|
|         538|   -5.261263|   -8.064312|    0.824089|    0.012094|
|         539|   -5.274329|   -8.058160|    0.824088|    0.012094|
|         540|   -5.288476|   -8.052088|    0.824088|    0.012094|
|         541|   -5.302670|   -8.046024|    0.824087|    0.012094|
|         542|   -5.315772|   -8.039927|    0.824087|    0.012094|
|         543|   -5.326822|   -8.033758|    0.824086|    0.012094|
|         544|   -5.335335|   -8.027514|    0.824086|    0.012094|
|         545|   -5.341457|   -8.021199|    0.824085|    0.012094|
|         546|   -5.345897|   -8.014833|    0.824084|    0.012095|
|         547|   -5.349674|   -8.008420|    0.824084|    0.012095|
|         548|   -5.353800|   -8.001966|    0.824083|    0.012095|
|         549|   -5.359056|   -7.995475|    0.824082|    0.012095|
|         550|   -5.365869|   -7.988947|    0.824081|    0.012095|
|         551|   -5.374311|   -7.982382|    0.824080|    0.012095|
|         552|   -5.384153|   -7.975773|    0.824079|    0.012095|
|         553|   -5.394963|   -7.969139|    0.824078|    0.012095|
|         554|   -5.406220|   -7.962470|    0.824076|    0.012096|
|         555|   -5.417434|   -7.955776|    0.824075|    0.012096|
|         556|   -5.428245|   -7.949076|    0.824073|    0.012096|
|         557|   -5.438480|   -7.942384|    0.824072|    0.012096|
|         558|   -5.448161|   -7.935737|    0.824070|    0.012096|
|         559|   -5.457461|   -7.929184|    0.824068|    0.012096|
|         560|   -5.466639|   -7.922784|    0.824067|    0.012096|
|         561|   -5.475967|   -7.916602|    0.824065|    0.012097|
|         562|   -5.485672|   -7.910710|    0.824063|    0.012097|
|         563|   -5.495913|   -7.905183|    0.824061|    0.012097|
|         564|   -5.506775|   -7.900095|    0.824059|    0.012097|
|         565|   -5.518280|   -7.895524|    0.824057|    0.012097|
|         566|   -5.530414|   -7.891538|    0.824054|    0.012097|
|         567|   -5.543142|   -7.888203|    0.824052|    0.012097|
|         568|   -5.556434|   -7.885578|    0.824050|    0.012097|
|         569|   -5.570269|   -7.883711|    0.824048|    0.012098|
|         570|   -5.584642|   -7.882636|    0.824045|    0.012098|
|         571|   -5.599556|   -7.882376|    0.824043|    0.012098|
|         572|   -5.615016|   -7.882934|    0.824041|    0.012098|
|         573|   -5.631018|   -7.884295|    0.824039|    0.012098|
|         574|   -5.647542|   -7.886423|    0.824037|    0.012098|
|         575|   -5.664545|   -7.889256|    0.824035|    0.012098|
|         576|   -5.681956|   -7.892709|    0.824033|    0.012098|
|         577|   -5.699680|   -7.896673|    0.824031|    0.012099|
|         578|   -5.717594|   -7.901011|    0.824029|    0.012099|
|         579|   -5.735551|   -7.905563|    0.824028|    0.012099|
|         580|   -5.753384|   -7.910150|    0.824026|    0.012099|
|         581|   -5.770908|   -7.914579|    0.824025|    0.012099|
|         582|   -5.787929|   -7.918651|    0.824024|    0.012099|
|         583|   -5.804246|   -7.922174|    0.824023|    0.012099|
|         584|   -5.819661|   -7.924974|    0.824022|    0.012099|
|         585|   -5.833995|   -7.926912|    0.824021|    0.012099|
|         586|   -5.847089|   -7.927892|    0.824021|    0.012099|
|         587|   -5.858825|   -7.927872|    0.824021|    0.012099|
|         588|   -5.869130|   -7.926868|    0.824021|    0.012099|
|         589|   -5.877986|   -7.924949|    0.824021|    0.012100|
|         590|   -5.885424|   -7.922233|    0.824021|    0.012100|
|         591|   -5.891527|   -7.918878|    0.824021|    0.012100|
|         592|   -5.896415|   -7.915064|    0.824022|    0.012100|
|         593|   -5.900238|   -7.910981|    0.824023|    0.012100|
|         594|   -5.903162|   -7.906820|    0.824023|    0.012100|
|         595|   -5.905354|   -7.902757|    0.824024|    0.012100|
|         596|   -5.906976|   -7.898952|    0.824026|    0.012100|
|         597|   -5.908178|   -7.895539|    0.824027|    0.012100|
|         598|   -5.909091|   -7.892626|    0.824028|    0.012100|
|         599|   -5.909824|   -7.890292|    0.824029|    0.012100|
|         600|   -5.910467|   -7.888586|    0.824031|    0.012100|
|         601|   -5.911091|   -7.887529|    0.824033|    0.012098|
+-----------------------------------------------------------------------+
|Fixed CL Mode                           |Value                         |
+-----------------------------------------------------------------------+
|Current CL                              |0.824033                      |
|Target CL                               |0.824                         |
|Previous AOA                            |2.78476                       |
|Changed AoA by                          |-0.000154561                  |
+-----------------------------------------------------------------------+
+----------------------------------------------------------------+
|  Inner_Iter|    rms[Rho]|     rms[nu]|          CL|          CD|
+----------------------------------------------------------------+
|         602|   -4.004225|   -7.817802|    0.824034|    0.012097|
|         603|   -4.387321|   -7.849928|    0.824036|    0.012097|
|         604|   -4.626930|   -7.860938|    0.824038|    0.012097|
|         605|   -4.703243|   -7.867903|    0.824039|    0.012097|
|         606|   -4.756139|   -7.873583|    0.824041|    0.012097|
|         607|   -4.825282|   -7.878555|    0.824043|    0.012097|
|         608|   -4.911019|   -7.882943|    0.824045|    0.012097|
|         609|   -5.001350|   -7.886774|    0.824046|    0.012097|
|         610|   -5.080888|   -7.890018|    0.824048|    0.012097|
|         611|   -5.141512|   -7.892577|    0.824050|    0.012097|
|         612|   -5.183862|   -7.894365|    0.824052|    0.012097|
|         613|   -5.210385|   -7.895370|    0.824053|    0.012097|
|         614|   -5.223821|   -7.895636|    0.824055|    0.012097|
|         615|   -5.229707|   -7.895199|    0.824057|    0.012097|
|         616|   -5.235096|   -7.894071|    0.824058|    0.012097|
|         617|   -5.245054|   -7.892259|    0.824060|    0.012097|
|         618|   -5.261093|   -7.889810|    0.824061|    0.012096|
|         619|   -5.281706|   -7.886817|    0.824062|    0.012096|
|         620|   -5.303933|   -7.883405|    0.824064|    0.012096|
|         621|   -5.325242|   -7.879702|    0.824065|    0.012096|
|         622|   -5.344832|   -7.875822|    0.824066|    0.012096|
|         623|   -5.363547|   -7.871862|    0.824067|    0.012096|
|         624|   -5.382712|   -7.867903|    0.824068|    0.012096|
|         625|   -5.403008|   -7.864025|    0.824069|    0.012096|
|         626|   -5.424087|   -7.860304|    0.824069|    0.012096|
|         627|   -5.444838|   -7.856812|    0.824070|    0.012096|
|         628|   -5.463896|   -7.853621|    0.824070|    0.012096|
|         629|   -5.480111|   -7.850787|    0.824071|    0.012095|
|         630|   -5.492824|   -7.848356|    0.824071|    0.012095|
|         631|   -5.502005|   -7.846362|    0.824072|    0.012095|
|         632|   -5.508259|   -7.844819|    0.824072|    0.012095|
|         633|   -5.512695|   -7.843731|    0.824072|    0.012095|
|         634|   -5.516653|   -7.843084|    0.824072|    0.012095|
|         635|   -5.521386|   -7.842850|    0.824072|    0.012095|
|         636|   -5.527814|   -7.842992|    0.824072|    0.012095|
|         637|   -5.536401|   -7.843462|    0.824072|    0.012095|
|         638|   -5.547134|   -7.844207|    0.824071|    0.012095|
|         639|   -5.559546|   -7.845170|    0.824071|    0.012095|
|         640|   -5.572783|   -7.846296|    0.824071|    0.012095|
|         641|   -5.585730|   -7.847531|    0.824070|    0.012095|
|         642|   -5.597222|   -7.848824|    0.824070|    0.012095|
|         643|   -5.606344|   -7.850129|    0.824070|    0.012095|
|         644|   -5.612712|   -7.851410|    0.824069|    0.012095|
|         645|   -5.616594|   -7.852634|    0.824069|    0.012095|
|         646|   -5.618789|   -7.853777|    0.824068|    0.012094|
|         647|   -5.620349|   -7.854820|    0.824067|    0.012094|
|         648|   -5.622266|   -7.855749|    0.824067|    0.012094|
|         649|   -5.625267|   -7.856556|    0.824066|    0.012094|
|         650|   -5.629721|   -7.857236|    0.824066|    0.012095|
|         651|   -5.635654|   -7.857785|    0.824065|    0.012095|
|         652|   -5.642820|   -7.858202|    0.824064|    0.012095|
|         653|   -5.650804|   -7.858488|    0.824064|    0.012095|
|         654|   -5.659137|   -7.858642|    0.824063|    0.012095|
|         655|   -5.667401|   -7.858659|    0.824062|    0.012095|
|         656|   -5.675313|   -7.858537|    0.824061|    0.012095|
|         657|   -5.682762|   -7.858271|    0.824061|    0.012095|
|         658|   -5.689805|   -7.857858|    0.824060|    0.012095|
|         659|   -5.696614|   -7.857295|    0.824059|    0.012095|
|         660|   -5.703423|   -7.856584|    0.824058|    0.012095|
|         661|   -5.710460|   -7.855727|    0.824057|    0.012095|
|         662|   -5.717911|   -7.854732|    0.824056|    0.012095|
|         663|   -5.725899|   -7.853613|    0.824055|    0.012095|
|         664|   -5.734484|   -7.852388|    0.824054|    0.012096|
|         665|   -5.743676|   -7.851082|    0.824053|    0.012096|
|         666|   -5.753456|   -7.849726|    0.824052|    0.012096|
|         667|   -5.763793|   -7.848355|    0.824051|    0.012096|
|         668|   -5.774659|   -7.847012|    0.824050|    0.012096|
|         669|   -5.786037|   -7.845739|    0.824049|    0.012096|
|         670|   -5.797919|   -7.844580|    0.824048|    0.012096|
|         671|   -5.810305|   -7.843580|    0.824047|    0.012096|
|         672|   -5.823194|   -7.842781|    0.824046|    0.012097|
|         673|   -5.836578|   -7.842220|    0.824045|    0.012097|
|         674|   -5.850435|   -7.841926|    0.824044|    0.012097|
|         675|   -5.864725|   -7.841924|    0.824043|    0.012097|
|         676|   -5.879387|   -7.842229|    0.824042|    0.012097|
|         677|   -5.894343|   -7.842845|    0.824041|    0.012097|
|         678|   -5.909493|   -7.843765|    0.824041|    0.012097|
|         679|   -5.924719|   -7.844974|    0.824040|    0.012098|
|         680|   -5.939890|   -7.846443|    0.824039|    0.012098|
|         681|   -5.954861|   -7.848137|    0.824038|    0.012098|
|         682|   -5.969480|   -7.850007|    0.824038|    0.012098|
|         683|   -5.983588|   -7.852002|    0.824037|    0.012098|
|         684|   -5.997030|   -7.854062|    0.824037|    0.012098|
|         685|   -6.009655|   -7.856125|    0.824036|    0.012098|
|         686|   -6.021331|   -7.858130|    0.824036|    0.012098|
|         687|   -6.031947|   -7.860017|    0.824036|    0.012099|
|         688|   -6.041423|   -7.861732|    0.824036|    0.012099|
|         689|   -6.049712|   -7.863230|    0.824035|    0.012099|
|         690|   -6.056810|   -7.864478|    0.824035|    0.012099|
|         691|   -6.062745|   -7.865455|    0.824035|    0.012099|
|         692|   -6.067584|   -7.866154|    0.824036|    0.012099|
|         693|   -6.071420|   -7.866584|    0.824036|    0.012099|
|         694|   -6.074366|   -7.866765|    0.824036|    0.012099|
|         695|   -6.076550|   -7.866732|    0.824036|    0.012099|
|         696|   -6.078106|   -7.866527|    0.824037|    0.012099|
|         697|   -6.079165|   -7.866200|    0.824037|    0.012100|
|         698|   -6.079854|   -7.865804|    0.824038|    0.012100|
|         699|   -6.080290|   -7.865392|    0.824038|    0.012100|
|         700|   -6.080580|   -7.865014|    0.824039|    0.012100|
|         701|   -6.080817|   -7.864717|    0.824039|    0.012097|
+-----------------------------------------------------------------------+
|Fixed CL Mode                           |Value                         |
+-----------------------------------------------------------------------+
|Current CL                              |0.824039                      |
|Target CL                               |0.824                         |
|Previous AOA                            |2.7846                        |
|Changed AoA by                          |-0.000193588                  |
+-----------------------------------------------------------------------+
+----------------------------------------------------------------+
|  Inner_Iter|    rms[Rho]|     rms[nu]|          CL|          CD|
+----------------------------------------------------------------+
|         702|   -3.906504|   -7.773184|    0.824040|    0.012097|
|         703|   -4.290421|   -7.814580|    0.824041|    0.012097|
|         704|   -4.532506|   -7.828238|    0.824042|    0.012097|
|         705|   -4.610157|   -7.836120|    0.824042|    0.012097|
|         706|   -4.663512|   -7.842032|    0.824043|    0.012097|
|         707|   -4.733135|   -7.846880|    0.824044|    0.012097|
|         708|   -4.819561|   -7.850954|    0.824045|    0.012097|
|         709|   -4.910528|   -7.854421|    0.824045|    0.012097|
|         710|   -4.990055|   -7.857378|    0.824046|    0.012097|
|         711|   -5.049656|   -7.859833|    0.824047|    0.012097|
|         712|   -5.090223|   -7.861806|    0.824048|    0.012097|
|         713|   -5.114776|   -7.863391|    0.824049|    0.012097|
|         714|   -5.126606|   -7.864732|    0.824049|    0.012097|
|         715|   -5.131532|   -7.865930|    0.824050|    0.012098|
|         716|   -5.136562|   -7.867002|    0.824051|    0.012098|
|         717|   -5.146567|   -7.867924|    0.824052|    0.012098|
|         718|   -5.162863|   -7.868683|    0.824052|    0.012098|
|         719|   -5.183767|   -7.869300|    0.824053|    0.012098|
|         720|   -5.206143|   -7.869819|    0.824053|    0.012098|
|         721|   -5.227295|   -7.870283|    0.824054|    0.012098|
|         722|   -5.246332|   -7.870708|    0.824054|    0.012098|
|         723|   -5.264106|   -7.871089|    0.824055|    0.012098|
|         724|   -5.282029|   -7.871415|    0.824055|    0.012098|
|         725|   -5.300921|   -7.871674|    0.824056|    0.012098|
|         726|   -5.320608|   -7.871870|    0.824056|    0.012098|
|         727|   -5.340178|   -7.872021|    0.824056|    0.012097|
|         728|   -5.358455|   -7.872158|    0.824056|    0.012097|
|         729|   -5.374403|   -7.872315|    0.824057|    0.012097|
|         730|   -5.387365|   -7.872526|    0.824057|    0.012097|
|         731|   -5.397189|   -7.872823|    0.824057|    0.012097|
|         732|   -5.404292|   -7.873232|    0.824057|    0.012097|
|         733|   -5.409595|   -7.873774|    0.824057|    0.012097|
|         734|   -5.414312|   -7.874459|    0.824057|    0.012097|
|         735|   -5.419652|   -7.875284|    0.824057|    0.012097|
|         736|   -5.426566|   -7.876239|    0.824057|    0.012097|
|         737|   -5.435602|   -7.877308|    0.824056|    0.012097|
|         738|   -5.446858|   -7.878469|    0.824056|    0.012097|
|         739|   -5.459993|   -7.879699|    0.824056|    0.012097|
|         740|   -5.474272|   -7.880971|    0.824056|    0.012097|
|         741|   -5.488669|   -7.882263|    0.824055|    0.012097|
|         742|   -5.502051|   -7.883554|    0.824055|    0.012097|
|         743|   -5.513457|   -7.884830|    0.824055|    0.012097|
|         744|   -5.522391|   -7.886079|    0.824054|    0.012097|
|         745|   -5.528984|   -7.887294|    0.824054|    0.012097|
|         746|   -5.533927|   -7.888470|    0.824053|    0.012097|
|         747|   -5.538227|   -7.889606|    0.824053|    0.012097|
|         748|   -5.542896|   -7.890701|    0.824052|    0.012097|
|         749|   -5.548718|   -7.891757|    0.824052|    0.012096|
|         750|   -5.556132|   -7.892772|    0.824051|    0.012096|
|         751|   -5.565220|   -7.893748|    0.824050|    0.012096|
|         752|   -5.575761|   -7.894688|    0.824050|    0.012096|
|         753|   -5.587322|   -7.895598|    0.824049|    0.012096|
|         754|   -5.599376|   -7.896478|    0.824048|    0.012096|
|         755|   -5.611420|   -7.897330|    0.824047|    0.012096|
|         756|   -5.623072|   -7.898154|    0.824047|    0.012096|
|         757|   -5.634140|   -7.898957|    0.824046|    0.012096|
|         758|   -5.644631|   -7.899749|    0.824045|    0.012096|
|         759|   -5.654707|   -7.900543|    0.824044|    0.012096|
|         760|   -5.664625|   -7.901355|    0.824043|    0.012096|
|         761|   -5.674654|   -7.902204|    0.824042|    0.012096|
|         762|   -5.685025|   -7.903114|    0.824040|    0.012096|
|         763|   -5.695899|   -7.904112|    0.824039|    0.012096|
|         764|   -5.707358|   -7.905229|    0.824038|    0.012096|
|         765|   -5.719422|   -7.906500|    0.824037|    0.012096|
|         766|   -5.732069|   -7.907958|    0.824036|    0.012096|
|         767|   -5.745259|   -7.909639|    0.824034|    0.012096|
|         768|   -5.758957|   -7.911577|    0.824033|    0.012096|
|         769|   -5.773136|   -7.913803|    0.824032|    0.012096|
|         770|   -5.787790|   -7.916342|    0.824031|    0.012096|
|         771|   -5.802922|   -7.919213|    0.824030|    0.012096|
|         772|   -5.818537|   -7.922424|    0.824028|    0.012096|
|         773|   -5.834635|   -7.925973|    0.824027|    0.012096|
|         774|   -5.851198|   -7.929848|    0.824026|    0.012096|
|         775|   -5.868187|   -7.934020|    0.824025|    0.012096|
|         776|   -5.885535|   -7.938447|    0.824024|    0.012096|
|         777|   -5.903150|   -7.943073|    0.824023|    0.012096|
|         778|   -5.920915|   -7.947826|    0.824022|    0.012096|
|         779|   -5.938692|   -7.952623|    0.824022|    0.012096|
|         780|   -5.956320|   -7.957372|    0.824021|    0.012096|
|         781|   -5.973629|   -7.961974|    0.824020|    0.012096|
|         782|   -5.990434|   -7.966330|    0.824020|    0.012096|
|         783|   -6.006552|   -7.970344|    0.824020|    0.012096|
|         784|   -6.021798|   -7.973929|    0.824019|    0.012096|
|         785|   -6.036006|   -7.977016|    0.824019|    0.012096|
|         786|   -6.049031|   -7.979556|    0.824019|    0.012096|
|         787|   -6.060761|   -7.981523|    0.824019|    0.012096|
|         788|   -6.071127|   -7.982920|    0.824019|    0.012096|
|         789|   -6.080108|   -7.983778|    0.824020|    0.012096|
|         790|   -6.087729|   -7.984152|    0.824020|    0.012096|
|         791|   -6.094063|   -7.984118|    0.824021|    0.012096|
|         792|   -6.099217|   -7.983771|    0.824021|    0.012096|
|         793|   -6.103328|   -7.983216|    0.824022|    0.012097|
|         794|   -6.106549|   -7.982562|    0.824022|    0.012097|
|         795|   -6.109037|   -7.981921|    0.824023|    0.012097|
|         796|   -6.110948|   -7.981397|    0.824024|    0.012097|
|         797|   -6.112426|   -7.981085|    0.824025|    0.012097|
|         798|   -6.113603|   -7.981068|    0.824026|    0.012097|
|         799|   -6.114593|   -7.981414|    0.824027|    0.012097|
|         800|   -6.115491|   -7.982173|    0.824028|    0.012097|
|         801|   -6.116379|   -7.983379|    0.824029|    0.012095|
+-----------------------------------------------------------------------+
|Fixed CL Mode                           |Value                         |
+-----------------------------------------------------------------------+
|Current CL                              |0.824029                      |
|Target CL                               |0.824                         |
|Previous AOA                            |2.78441                       |
|Changed AoA by                          |-0.000140528                  |
+-----------------------------------------------------------------------+
+----------------------------------------------------------------+
|  Inner_Iter|    rms[Rho]|     rms[nu]|          CL|          CD|
+----------------------------------------------------------------+
|         802|   -4.045593|   -7.899523|    0.824030|    0.012095|
|         803|   -4.429243|   -7.940116|    0.824032|    0.012095|
|         804|   -4.670598|   -7.955060|    0.824033|    0.012095|
|         805|   -4.747897|   -7.964918|    0.824034|    0.012096|
|         806|   -4.801140|   -7.973183|    0.824035|    0.012096|
|         807|   -4.870620|   -7.980635|    0.824036|    0.012096|
|         808|   -4.956817|   -7.987477|    0.824037|    0.012096|
|         809|   -5.047548|   -7.993793|    0.824039|    0.012096|
|         810|   -5.127030|   -7.999596|    0.824040|    0.012096|
|         811|   -5.186915|   -8.004823|    0.824041|    0.012096|
|         812|   -5.228040|   -8.009421|    0.824042|    0.012096|
|         813|   -5.253247|   -8.013430|    0.824043|    0.012096|
|         814|   -5.265638|   -8.016952|    0.824044|    0.012096|
|         815|   -5.270933|   -8.020062|    0.824045|    0.012096|
|         816|   -5.276146|   -8.022769|    0.824046|    0.012096|
|         817|   -5.286220|   -8.025042|    0.824047|    0.012096|
|         818|   -5.302538|   -8.026877|    0.824047|    0.012096|
|         819|   -5.323481|   -8.028315|    0.824048|    0.012096|
|         820|   -5.345964|   -8.029436|    0.824049|    0.012097|
|         821|   -5.367334|   -8.030320|    0.824049|    0.012097|
|         822|   -5.386713|   -8.031026|    0.824050|    0.012097|
|         823|   -5.404941|   -8.031593|    0.824050|    0.012097|
|         824|   -5.423397|   -8.032046|    0.824051|    0.012097|
|         825|   -5.442854|   -8.032417|    0.824051|    0.012097|
|         826|   -5.463075|   -8.032751|    0.824051|    0.012097|
|         827|   -5.483070|   -8.033093|    0.824052|    0.012097|
|         828|   -5.501587|   -8.033515|    0.824052|    0.012097|
|         829|   -5.517541|   -8.034079|    0.824052|    0.012097|
|         830|   -5.530270|   -8.034844|    0.824052|    0.012097|
|         831|   -5.539665|   -8.035857|    0.824052|    0.012097|
|         832|   -5.546215|   -8.037155|    0.824052|    0.012097|
|         833|   -5.550919|   -8.038765|    0.824052|    0.012097|
|         834|   -5.555046|   -8.040688|    0.824051|    0.012097|
|         835|   -5.559828|   -8.042912|    0.824051|    0.012097|
|         836|   -5.566206|   -8.045414|    0.824051|    0.012097|
|         837|   -5.574697|   -8.048156|    0.824051|    0.012097|
|         838|   -5.585359|   -8.051095|    0.824050|    0.012097|
|         839|   -5.597807|   -8.054182|    0.824050|    0.012097|
|         840|   -5.611275|   -8.057369|    0.824049|    0.012097|
|         841|   -5.624722|   -8.060610|    0.824049|    0.012097|
|         842|   -5.637033|   -8.063862|    0.824048|    0.012096|
|         843|   -5.647294|   -8.067090|    0.824048|    0.012096|
|         844|   -5.655074|   -8.070269|    0.824047|    0.012096|
|         845|   -5.660562|   -8.073380|    0.824046|    0.012096|
|         846|   -5.664482|   -8.076413|    0.824046|    0.012096|
|         847|   -5.667838|   -8.079362|    0.824045|    0.012096|
|         848|   -5.671613|   -8.082225|    0.824044|    0.012096|
|         849|   -5.676556|   -8.085002|    0.824044|    0.012096|
|         850|   -5.683071|   -8.087696|    0.824043|    0.012096|
|         851|   -5.691221|   -8.090307|    0.824042|    0.012096|
|         852|   -5.700780|   -8.092833|    0.824041|    0.012096|
|         853|   -5.711330|   -8.095276|    0.824040|    0.012096|
|         854|   -5.722376|   -8.097627|    0.824040|    0.012096|
|         855|   -5.733452|   -8.099866|    0.824039|    0.012096|
|         856|   -5.744216|   -8.101977|    0.824038|    0.012096|
|         857|   -5.754506|   -8.103942|    0.824037|    0.012096|
|         858|   -5.764339|   -8.105741|    0.824036|    0.012096|
|         859|   -5.773875|   -8.107359|    0.824035|    0.012096|
|         860|   -5.783351|   -8.108781|    0.824034|    0.012096|
|         861|   -5.793016|   -8.109999|    0.824033|    0.012096|
|         862|   -5.803076|   -8.111010|    0.824032|    0.012096|
|         863|   -5.813671|   -8.111820|    0.824031|    0.012096|
|         864|   -5.824867|   -8.112446|    0.824030|    0.012096|
|         865|   -5.836672|   -8.112915|    0.824029|    0.012096|
|         866|   -5.849055|   -8.113264|    0.824028|    0.012096|
|         867|   -5.861968|   -8.113540|    0.824027|    0.012096|
|         868|   -5.875361|   -8.113795|    0.824026|    0.012096|
|         869|   -5.889193|   -8.114088|    0.824025|    0.012096|
|         870|   -5.903438|   -8.114481|    0.824024|    0.012096|
|         871|   -5.918073|   -8.115029|    0.824023|    0.012096|
|         872|   -5.933075|   -8.115790|    0.824022|    0.012096|
|         873|   -5.948410|   -8.116807|    0.824021|    0.012096|
|         874|   -5.964021|   -8.118115|    0.824020|    0.012096|
|         875|   -5.979829|   -8.119736|    0.824019|    0.012096|
|         876|   -5.995725|   -8.121676|    0.824018|    0.012096|
|         877|   -6.011570|   -8.123924|    0.824017|    0.012096|
|         878|   -6.027204|   -8.126452|    0.824017|    0.012096|
|         879|   -6.042444|   -8.129215|    0.824016|    0.012096|
|         880|   -6.057100|   -8.132151|    0.824015|    0.012096|
|         881|   -6.070973|   -8.135183|    0.824015|    0.012096|
|         882|   -6.083875|   -8.138223|    0.824014|    0.012096|
|         883|   -6.095634|   -8.141176|    0.824014|    0.012096|
|         884|   -6.106106|   -8.143941|    0.824014|    0.012096|
|         885|   -6.115186|   -8.146422|    0.824014|    0.012096|
|         886|   -6.122814|   -8.148534|    0.824013|    0.012096|
|         887|   -6.128981|   -8.150205|    0.824013|    0.012096|
|         888|   -6.133729|   -8.151388|    0.824013|    0.012096|
|         889|   -6.137147|   -8.152058|    0.824013|    0.012096|
|         890|   -6.139361|   -8.152220|    0.824013|    0.012096|
|         891|   -6.140526|   -8.151907|    0.824014|    0.012096|
|         892|   -6.140811|   -8.151178|    0.824014|    0.012096|
|         893|   -6.140391|   -8.150113|    0.824014|    0.012096|
|         894|   -6.139438|   -8.148812|    0.824015|    0.012096|
|         895|   -6.138111|   -8.147380|    0.824015|    0.012097|
|         896|   -6.136555|   -8.145929|    0.824016|    0.012097|
|         897|   -6.134896|   -8.144569|    0.824016|    0.012097|
|         898|   -6.133242|   -8.143400|    0.824017|    0.012097|
|         899|   -6.131684|   -8.142511|    0.824017|    0.012097|
|         900|   -6.130294|   -8.141975|    0.824018|    0.012097|
|         901|   -6.129133|   -8.141847|    0.824019|    0.012096|
+-----------------------------------------------------------------------+
|Fixed CL Mode                           |Value                         |
+-----------------------------------------------------------------------+
|Current CL                              |0.824019                      |
|Target CL                               |0.824                         |
|Previous AOA                            |2.78427                       |
[...]
|        5298|   -6.039043|   -7.935482|    0.824240|    0.012102|
|        5299|   -6.045608|   -7.939726|    0.824240|    0.012102|
|        5300|   -6.051818|   -7.944053|    0.824240|    0.012102|
|        5301|   -6.057633|   -7.948482|    0.824240|    0.012102|
|        5302|   -6.063028|   -7.953027|    0.824240|    0.012102|
|        5303|   -6.067984|   -7.957700|    0.824241|    0.012102|
|        5304|   -6.072496|   -7.962510|    0.824241|    0.012102|
|        5305|   -6.076567|   -7.967460|    0.824241|    0.012102|
|        5306|   -6.080214|   -7.972553|    0.824241|    0.012102|
|        5307|   -6.083460|   -7.977788|    0.824241|    0.012102|
|        5308|   -6.086339|   -7.983165|    0.824241|    0.012102|
|        5309|   -6.088890|   -7.988680|    0.824241|    0.012102|
|        5310|   -6.091161|   -7.994332|    0.824241|    0.012102|
|        5311|   -6.093201|   -8.000116|    0.824242|    0.012102|
|        5312|   -6.095061|   -8.006031|    0.824242|    0.012102|
|        5313|   -6.096796|   -8.012072|    0.824242|    0.012102|
|        5314|   -6.098457|   -8.018239|    0.824242|    0.012102|
|        5315|   -6.100095|   -8.024529|    0.824242|    0.012102|
|        5316|   -6.101755|   -8.030941|    0.824242|    0.012102|
|        5317|   -6.103478|   -8.037473|    0.824242|    0.012102|
|        5318|   -6.105304|   -8.044124|    0.824243|    0.012102|
|        5319|   -6.107262|   -8.050893|    0.824243|    0.012102|
|        5320|   -6.109379|   -8.057776|    0.824243|    0.012102|
|        5321|   -6.111674|   -8.064771|    0.824243|    0.012102|
|        5322|   -6.114160|   -8.071876|    0.824243|    0.012102|
|        5323|   -6.116846|   -8.079088|    0.824243|    0.012102|
|        5324|   -6.119732|   -8.086400|    0.824244|    0.012102|
|        5325|   -6.122811|   -8.093810|    0.824244|    0.012102|
|        5326|   -6.126073|   -8.101309|    0.824244|    0.012102|
|        5327|   -6.129499|   -8.108889|    0.824244|    0.012102|
|        5328|   -6.133066|   -8.116542|    0.824244|    0.012103|
|        5329|   -6.136747|   -8.124254|    0.824245|    0.012103|
|        5330|   -6.140509|   -8.132015|    0.824245|    0.012103|
|        5331|   -6.144317|   -8.139809|    0.824245|    0.012103|
|        5332|   -6.148133|   -8.147622|    0.824245|    0.012103|
|        5333|   -6.151916|   -8.155439|    0.824245|    0.012103|
|        5334|   -6.155628|   -8.163244|    0.824246|    0.012103|
|        5335|   -6.159229|   -8.171023|    0.824246|    0.012103|
|        5336|   -6.162683|   -8.178760|    0.824246|    0.012103|
|        5337|   -6.165959|   -8.186444|    0.824246|    0.012103|
|        5338|   -6.169027|   -8.194063|    0.824246|    0.012103|
|        5339|   -6.171868|   -8.201607|    0.824246|    0.012103|
|        5340|   -6.174468|   -8.209068|    0.824247|    0.012104|
|        5341|   -6.176819|   -8.216442|    0.824247|    0.012104|
|        5342|   -6.178924|   -8.223725|    0.824247|    0.012104|
|        5343|   -6.180793|   -8.230917|    0.824247|    0.012104|
|        5344|   -6.182441|   -8.238020|    0.824247|    0.012104|
|        5345|   -6.183895|   -8.245038|    0.824247|    0.012104|
|        5346|   -6.185183|   -8.251977|    0.824247|    0.012104|
|        5347|   -6.186341|   -8.258844|    0.824248|    0.012104|
|        5348|   -6.187408|   -8.265648|    0.824248|    0.012104|
|        5349|   -6.188426|   -8.272400|    0.824248|    0.012104|
|        5350|   -6.189437|   -8.279108|    0.824248|    0.012104|
|        5351|   -6.190485|   -8.285785|    0.824248|    0.012104|
|        5352|   -6.191612|   -8.292438|    0.824248|    0.012104|
|        5353|   -6.192858|   -8.299078|    0.824248|    0.012104|
|        5354|   -6.194262|   -8.305712|    0.824248|    0.012104|
|        5355|   -6.195859|   -8.312350|    0.824249|    0.012104|
|        5356|   -6.197679|   -8.318996|    0.824249|    0.012104|
|        5357|   -6.199749|   -8.325654|    0.824249|    0.012104|
|        5358|   -6.202093|   -8.332325|    0.824249|    0.012104|
|        5359|   -6.204728|   -8.339007|    0.824249|    0.012104|
|        5360|   -6.207669|   -8.345696|    0.824249|    0.012104|
|        5361|   -6.210923|   -8.352384|    0.824249|    0.012104|
|        5362|   -6.214496|   -8.359061|    0.824249|    0.012104|
|        5363|   -6.218385|   -8.365714|    0.824249|    0.012104|
|        5364|   -6.222585|   -8.372328|    0.824249|    0.012104|
|        5365|   -6.227086|   -8.378884|    0.824249|    0.012104|
|        5366|   -6.231872|   -8.385361|    0.824249|    0.012104|
|        5367|   -6.236922|   -8.391738|    0.824249|    0.012104|
|        5368|   -6.242212|   -8.397990|    0.824249|    0.012104|
|        5369|   -6.247711|   -8.404091|    0.824249|    0.012104|
|        5370|   -6.253386|   -8.410013|    0.824249|    0.012104|
|        5371|   -6.259198|   -8.415729|    0.824249|    0.012104|
|        5372|   -6.265106|   -8.421209|    0.824249|    0.012104|
|        5373|   -6.271065|   -8.426423|    0.824250|    0.012104|
|        5374|   -6.277028|   -8.431343|    0.824250|    0.012104|
|        5375|   -6.282947|   -8.435941|    0.824250|    0.012104|
|        5376|   -6.288772|   -8.440190|    0.824250|    0.012104|
|        5377|   -6.294454|   -8.444065|    0.824250|    0.012104|
|        5378|   -6.299946|   -8.447544|    0.824250|    0.012104|
|        5379|   -6.305205|   -8.450608|    0.824250|    0.012104|
|        5380|   -6.310188|   -8.453240|    0.824250|    0.012104|
|        5381|   -6.314862|   -8.455430|    0.824250|    0.012104|
|        5382|   -6.319195|   -8.457166|    0.824250|    0.012104|
|        5383|   -6.323166|   -8.458444|    0.824250|    0.012103|
|        5384|   -6.326757|   -8.459260|    0.824250|    0.012103|
|        5385|   -6.329962|   -8.459616|    0.824250|    0.012103|
|        5386|   -6.332777|   -8.459514|    0.824250|    0.012103|
|        5387|   -6.335208|   -8.458960|    0.824251|    0.012103|
|        5388|   -6.337267|   -8.457962|    0.824251|    0.012103|
|        5389|   -6.338971|   -8.456531|    0.824251|    0.012103|
|        5390|   -6.340340|   -8.454678|    0.824251|    0.012103|
|        5391|   -6.341399|   -8.452417|    0.824251|    0.012103|
|        5392|   -6.342174|   -8.449764|    0.824251|    0.012103|
|        5393|   -6.342693|   -8.446737|    0.824252|    0.012103|
|        5394|   -6.342984|   -8.443355|    0.824252|    0.012102|
|        5395|   -6.343073|   -8.439637|    0.824252|    0.012102|
|        5396|   -6.342986|   -8.435608|    0.824252|    0.012102|
|        5397|   -6.342748|   -8.431291|    0.824252|    0.012102|
|        5398|   -6.342379|   -8.426710|    0.824253|    0.012102|
|        5399|   -6.341898|   -8.421892|    0.824253|    0.012102|
|        5400|   -6.341323|   -8.416863|    0.824253|    0.012102|
|        5401|   -6.340670|   -8.411653|    0.824253|    0.012102|
|        5402|   -6.339950|   -8.406292|    0.824254|    0.012102|
|        5403|   -6.339174|   -8.400812|    0.824254|    0.012102|
|        5404|   -6.338351|   -8.395243|    0.824254|    0.012102|
|        5405|   -6.337486|   -8.389616|    0.824255|    0.012101|
|        5406|   -6.336586|   -8.383962|    0.824255|    0.012101|
|        5407|   -6.335655|   -8.378308|    0.824255|    0.012101|
|        5408|   -6.334697|   -8.372682|    0.824255|    0.012101|
|        5409|   -6.333717|   -8.367110|    0.824256|    0.012101|
|        5410|   -6.332716|   -8.361618|    0.824256|    0.012101|
|        5411|   -6.331697|   -8.356230|    0.824256|    0.012101|
|        5412|   -6.330664|   -8.350969|    0.824257|    0.012101|
|        5413|   -6.329620|   -8.345853|    0.824257|    0.012101|
|        5414|   -6.328568|   -8.340899|    0.824257|    0.012101|
|        5415|   -6.327511|   -8.336120|    0.824257|    0.012101|
|        5416|   -6.326455|   -8.331526|    0.824258|    0.012101|
|        5417|   -6.325403|   -8.327125|    0.824258|    0.012101|
|        5418|   -6.324362|   -8.322924|    0.824258|    0.012101|
|        5419|   -6.323337|   -8.318927|    0.824258|    0.012101|
|        5420|   -6.322335|   -8.315135|    0.824259|    0.012101|
|        5421|   -6.321364|   -8.311550|    0.824259|    0.012100|
|        5422|   -6.320430|   -8.308169|    0.824259|    0.012100|
|        5423|   -6.319544|   -8.304990|    0.824259|    0.012100|
|        5424|   -6.318714|   -8.302007|    0.824260|    0.012100|
|        5425|   -6.317950|   -8.299216|    0.824260|    0.012100|
|        5426|   -6.317264|   -8.296608|    0.824260|    0.012100|
|        5427|   -6.316668|   -8.294178|    0.824260|    0.012100|
|        5428|   -6.316175|   -8.291916|    0.824261|    0.012100|
|        5429|   -6.315795|   -8.289814|    0.824261|    0.012100|
|        5430|   -6.315544|   -8.287862|    0.824261|    0.012100|
|        5431|   -6.315433|   -8.286052|    0.824261|    0.012100|
|        5432|   -6.315479|   -8.284374|    0.824261|    0.012100|
|        5433|   -6.315694|   -8.282818|    0.824262|    0.012100|
|        5434|   -6.316092|   -8.281377|    0.824262|    0.012100|
|        5435|   -6.316687|   -8.280039|    0.824262|    0.012101|
|        5436|   -6.317492|   -8.278799|    0.824262|    0.012101|
|        5437|   -6.318520|   -8.277648|    0.824262|    0.012101|
|        5438|   -6.319781|   -8.276580|    0.824263|    0.012101|
|        5439|   -6.321287|   -8.275589|    0.824263|    0.012101|
|        5440|   -6.323045|   -8.274670|    0.824263|    0.012101|
|        5441|   -6.325064|   -8.273816|    0.824263|    0.012101|
|        5442|   -6.327347|   -8.273025|    0.824263|    0.012101|
|        5443|   -6.329900|   -8.272290|    0.824263|    0.012101|
|        5444|   -6.332721|   -8.271610|    0.824264|    0.012101|
|        5445|   -6.335811|   -8.270979|    0.824264|    0.012101|
|        5446|   -6.339163|   -8.270396|    0.824264|    0.012101|
|        5447|   -6.342771|   -8.269857|    0.824264|    0.012101|
|        5448|   -6.346624|   -8.269359|    0.824264|    0.012101|
|        5449|   -6.350708|   -8.268900|    0.824264|    0.012101|
|        5450|   -6.355006|   -8.268479|    0.824264|    0.012101|
|        5451|   -6.359497|   -8.268092|    0.824264|    0.012101|
|        5452|   -6.364157|   -8.267738|    0.824264|    0.012102|
|        5453|   -6.368958|   -8.267415|    0.824264|    0.012102|
|        5454|   -6.373870|   -8.267121|    0.824265|    0.012102|
|        5455|   -6.378858|   -8.266856|    0.824265|    0.012102|
|        5456|   -6.383885|   -8.266617|    0.824265|    0.012102|
|        5457|   -6.388912|   -8.266403|    0.824265|    0.012102|
|        5458|   -6.393897|   -8.266214|    0.824265|    0.012102|
|        5459|   -6.398798|   -8.266048|    0.824265|    0.012102|
|        5460|   -6.403571|   -8.265903|    0.824265|    0.012102|
|        5461|   -6.408174|   -8.265780|    0.824265|    0.012102|
|        5462|   -6.412563|   -8.265676|    0.824265|    0.012102|
|        5463|   -6.416700|   -8.265592|    0.824265|    0.012102|
|        5464|   -6.420548|   -8.265525|    0.824265|    0.012103|
|        5465|   -6.424075|   -8.265476|    0.824265|    0.012103|
|        5466|   -6.427253|   -8.265443|    0.824265|    0.012103|
|        5467|   -6.430060|   -8.265425|    0.824265|    0.012103|
|        5468|   -6.432482|   -8.265421|    0.824265|    0.012103|
|        5469|   -6.434511|   -8.265430|    0.824265|    0.012103|
|        5470|   -6.436145|   -8.265452|    0.824265|    0.012103|
|        5471|   -6.437390|   -8.265483|    0.824265|    0.012103|
|        5472|   -6.438259|   -8.265524|    0.824265|    0.012103|
|        5473|   -6.438770|   -8.265573|    0.824265|    0.012103|
|        5474|   -6.438948|   -8.265627|    0.824265|    0.012103|
|        5475|   -6.438821|   -8.265686|    0.824265|    0.012103|
|        5476|   -6.438422|   -8.265748|    0.824265|    0.012103|
|        5477|   -6.437785|   -8.265810|    0.824265|    0.012103|
|        5478|   -6.436949|   -8.265872|    0.824265|    0.012103|
|        5479|   -6.435950|   -8.265931|    0.824265|    0.012103|
|        5480|   -6.434827|   -8.265985|    0.824265|    0.012103|
|        5481|   -6.433617|   -8.266032|    0.824265|    0.012103|
|        5482|   -6.432357|   -8.266070|    0.824265|    0.012103|
|        5483|   -6.431081|   -8.266096|    0.824265|    0.012104|
|        5484|   -6.429822|   -8.266110|    0.824265|    0.012104|
|        5485|   -6.428610|   -8.266108|    0.824265|    0.012104|
|        5486|   -6.427473|   -8.266090|    0.824265|    0.012104|
|        5487|   -6.426436|   -8.266054|    0.824265|    0.012104|
|        5488|   -6.425522|   -8.265998|    0.824265|    0.012104|
|        5489|   -6.424750|   -8.265922|    0.824265|    0.012104|
|        5490|   -6.424137|   -8.265824|    0.824265|    0.012104|
|        5491|   -6.423698|   -8.265704|    0.824265|    0.012104|
|        5492|   -6.423446|   -8.265560|    0.824265|    0.012104|
|        5493|   -6.423391|   -8.265393|    0.824265|    0.012103|
|        5494|   -6.423540|   -8.265203|    0.824265|    0.012103|
|        5495|   -6.423899|   -8.264989|    0.824265|    0.012103|
|        5496|   -6.424473|   -8.264752|    0.824265|    0.012103|
|        5497|   -6.425264|   -8.264491|    0.824265|    0.012103|
|        5498|   -6.426273|   -8.264208|    0.824266|    0.012103|
|        5499|   -6.427500|   -8.263903|    0.824266|    0.012089|
+-----------------------------------------------------------------------+
|Fixed CL Mode (Finite Difference)       |Value                         |
+-----------------------------------------------------------------------+
|Delta CL / Delta AoA                    |0.265498                      |
|Delta CD / Delta CL                     |0.0213249                     |
|Delta CMz / Delta CL                    |0.0281766                     |
+-----------------------------------------------------------------------+
Writing Flow Meta-Data file: flow.meta

----------------------------- Solver Exit -------------------------------

Maximum number of iterations reached (ITER = 5500) before convergence.
+-----------------------------------------------------------------------+
|      Convergence Field     |     Value    |   Criterion  |  Converged |
+-----------------------------------------------------------------------+
|                    rms[Rho]|       -6.4275|         < -12|          No|
+-----------------------------------------------------------------------+
-------------------------------------------------------------------------

--------------------------- Finalizing Solver ---------------------------
Deleted CNumerics container.
Deleted CIntegration container.
Deleted CSolver container.
Deleted CIteration container.
Deleted CInterface container.
Deleted CGeometry container.
Deleted CFreeFormDefBox class.
Deleted CSurfaceMovement class.
Deleted CVolumetricMovement class.
Deleted CConfig container.
Deleted nInst container.
Deleted COutput class.
-------------------------------------------------------------------------

------------------------- Exit Success (SU2_CFD) ------------------------


-------------------------------------------------------------------------
|    ___ _   _ ___                                                      |
|   / __| | | |_  )   Release 8.0.0 "Harrier"                           |
|   \__ \ |_| |/ /                                                      |
|   |___/\___//___|   Suite (Solution Exporting Code)                   |
|                                                                       |
-------------------------------------------------------------------------
| SU2 Project Website: https://su2code.github.io                        |
|                                                                       |
| The SU2 Project is maintained by the SU2 Foundation                   |
| (http://su2foundation.org)                                            |
-------------------------------------------------------------------------
| Copyright 2012-2023, SU2 Contributors                                 |
|                                                                       |
| SU2 is free software; you can redistribute it and/or                  |
| modify it under the terms of the GNU Lesser General Public            |
| License as published by the Free Software Foundation; either          |
| version 2.1 of the License, or (at your option) any later version.    |
|                                                                       |
| SU2 is distributed in the hope that it will be useful,                |
| but WITHOUT ANY WARRANTY; without even the implied warranty of        |
| MERCHANTABILITY or FITNESS FOR A PARTICULAR PURPOSE. See the GNU      |
| Lesser General Public License for more details.                       |
|                                                                       |
| You should have received a copy of the GNU Lesser General Public      |
| License along with SU2. If not, see <http://www.gnu.org/licenses/>.   |
-------------------------------------------------------------------------

----------------- Physical Case Definition ( Zone 0 ) -------------------
Input mesh file name: mesh_RAE2822_turb_deform.su2

-------------------- Output Information ( Zone 0 ) ----------------------
The tabular file format is CSV (.csv).
Flow variables file name: flow.

------------- Config File Boundary Information ( Zone 0 ) ---------------
+-----------------------------------------------------------------------+
|                        Marker Type|                        Marker Name|
+-----------------------------------------------------------------------+
|                          Far-field|                           FARFIELD|
+-----------------------------------------------------------------------+
|                     Heat flux wall|                            AIRFOIL|
+-----------------------------------------------------------------------+
Two dimensional problem.
13937 grid points before partitioning.
22842 volume elements before partitioning.
2 surface markers.
192 boundary elements in index 0 (Marker = AIRFOIL).
40 boundary elements in index 1 (Marker = FARFIELD).
Executing the partitioning functions.
Building the graph adjacency structure.
Calling ParMETIS... graph partitioning complete (831 edge cuts).
Distributing ParMETIS coloring.
Rebalancing vertices.
Rebalancing volume element connectivity.
Rebalancing markers and surface elements.
14875 vertices including ghost points. 
23674 interior elements including halo cells. 
18780 triangles.
4894 quadrilaterals.
Establishing MPI communication patterns.
Identify vertices.
Storing a mapping from global to local point index.

------------------------- Solution Postprocessing -----------------------
Reading and storing the solution from restart_flow.
Volume output fields: COORDINATES, SOLUTION
  Info: Ignoring the following screen output fields:
  RMS_DENSITY, RMS_NU_TILDE, LIFT, DRAG
Screen output fields: INNER_ITER
  Info: Ignoring the following history output groups:
  RMS_RES, AERO_COEFF
History output group(s): ITER
Warning: No (valid) fields chosen for convergence monitoring. Convergence monitoring inactive.
Warning: No (valid) fields chosen for time convergence monitoring. Time convergence monitoring inactive.
|Paraview                           |flow.vtu                           |
|Paraview surface                   |surface_flow.vtu                   |
|CSV file                           |surface_flow.csv                   |

------------------------- Finalize Solver -------------------------
Deleted CGeometry container.
Deleted CSolver class.
Deleted CConfig container.
Deleted COutput class.

Completed in 0.019227 seconds on 6 cores.

------------------------- Exit Success (SU2_SOL) ------------------------

