
-------------------------------------------------------------------------
|    ___ _   _ ___                                                      |
|   / __| | | |_  )   Release 8.0.0 "Harrier"                           |
|   \__ \ |_| |/ /                                                      |
|   |___/\___//___|   Suite (Computational Fluid Dynamics Code)         |
|                                                                       |
-------------------------------------------------------------------------
| SU2 Project Website: https://su2code.github.io                        |
|                                                                       |
| The SU2 Project is maintained by the SU2 Foundation                   |
| (http://su2foundation.org)                                            |
-------------------------------------------------------------------------
| Copyright 2012-2023, SU2 Contributors                                 |
|                                                                       |
| SU2 is free software; you can redistribute it and/or                  |
| modify it under the terms of the GNU Lesser General Public            |
| License as published by the Free Software Foundation; either          |
| version 2.1 of the License, or (at your option) any later version.    |
|                                                                       |
| SU2 is distributed in the hope that it will be useful,                |
| but WITHOUT ANY WARRANTY; without even the implied warranty of        |
| MERCHANTABILITY or FITNESS FOR A PARTICULAR PURPOSE. See the GNU      |
| Lesser General Public License for more details.                       |
|                                                                       |
| You should have received a copy of the GNU Lesser General Public      |
| License along with SU2. If not, see <http://www.gnu.org/licenses/>.   |
-------------------------------------------------------------------------

Parsing config file for zone 0

----------------- Physical Case Definition ( Zone 0 ) -------------------
Compressible RANS equations.
Turbulence model: Spalart-Allmaras-noft2
Hybrid RANS/LES: No Hybrid RANS/LES
Mach number: 0.734.
Angle of attack (AoA): 2.31 deg, and angle of sideslip (AoS): 0 deg.
Reynolds number: 6.5e+06. Reference length 1.
Fixed CL mode, target value: 0.824.
Reading and writing binary SU2 native restart files.
Read flow solution from: solution_flow.dat.
Dimensional simulation.
The reference area is 1 m^2.
The semi-span will be computed using the max y(3D) value.
The reference length is 1 m.
Reference origin for moment evaluation is (0.25, 0, 0).
Surface(s) where the force coefficients are evaluated: AIRFOIL.

Surface(s) plotted in the output file: AIRFOIL.
Surface(s) affected by the design variables: AIRFOIL.
Input mesh file name: mesh_RAE2822_turb_deform.su2

--------------- Space Numerical Integration ( Zone 0 ) ------------------
Jameson-Schmidt-Turkel scheme (2nd order in space) for the flow inviscid terms.
JST viscous coefficients (2nd & 4th): 0.5, 0.02.
The method includes a grid stretching correction (p = 0.3).
Scalar upwind solver for the turbulence model.
First order integration in space.
Average of gradients with correction (viscous flow terms).
Average of gradients with correction (viscous turbulence terms).
Gradient for viscous and source terms: inverse-distance weighted Least-Squares.

--------------- Time Numerical Integration  ( Zone 0 ) ------------------
Local time stepping (steady state simulation).
Euler implicit method for the flow equations.
FGMRES is used for solving the linear system.
Using a ILU(0) preconditioning.
Convergence criteria of the linear solver: 1e-06.
Max number of linear iterations: 10.
No CFL adaptation.
Courant-Friedrichs-Lewy number:       10
Euler implicit time integration for the turbulence model.

------------------ Convergence Criteria  ( Zone 0 ) ---------------------
Maximum number of solver subiterations: 5500.
Begin convergence monitoring at iteration 10.
Residual minimum value: 1e-12.
Cauchy series min. value: 1e-06.
Number of Cauchy elements: 100.
Begin windowed time average at iteration 0.

-------------------- Output Information ( Zone 0 ) ----------------------
File writing frequency: 
+------------------------------------+
|                     File| Frequency|
+------------------------------------+
|                  RESTART|     10000|
|                 PARAVIEW|     10000|
|         SURFACE_PARAVIEW|     10000|
|              SURFACE_CSV|     10000|
+------------------------------------+
Writing the convergence history file every 1 inner iterations.
Writing the screen convergence history every 1 inner iterations.
The tabular file format is CSV (.csv).
Convergence history file name: history_direct.
Forces breakdown file name: forces_breakdown.dat.
Surface file name: surface_flow.
Volume file name: flow.
Restart file name: restart_flow.dat.

------------- Config File Boundary Information ( Zone 0 ) ---------------
+-----------------------------------------------------------------------+
|                        Marker Type|                        Marker Name|
+-----------------------------------------------------------------------+
|                          Far-field|                           FARFIELD|
+-----------------------------------------------------------------------+
|                     Heat flux wall|                            AIRFOIL|
+-----------------------------------------------------------------------+

-------------------- Output Preprocessing ( Zone 0 ) --------------------

WARNING: SURFACE_PRESSURE_DROP can only be computed for at least 2 surfaces (outlet, inlet, ...)

Screen output fields: INNER_ITER, RMS_DENSITY, RMS_NU_TILDE, LIFT, DRAG
History output group(s): ITER, RMS_RES, AERO_COEFF
Convergence field(s): RMS_DENSITY
Warning: No (valid) fields chosen for time convergence monitoring. Time convergence monitoring inactive.
Volume output fields: COORDINATES, SOLUTION, PRIMITIVE

------------------- Geometry Preprocessing ( Zone 0 ) -------------------
Two dimensional problem.
13937 grid points before partitioning.
22842 volume elements before partitioning.
2 surface markers.
192 boundary elements in index 0 (Marker = AIRFOIL).
40 boundary elements in index 1 (Marker = FARFIELD).
Executing the partitioning functions.
Building the graph adjacency structure.
Calling ParMETIS... graph partitioning complete (831 edge cuts).
Distributing ParMETIS coloring.
Rebalancing vertices.
Rebalancing volume element connectivity.
Rebalancing markers and surface elements.
14875 vertices including ghost points. 
23674 interior elements including halo cells. 
18780 triangles.
4894 quadrilaterals.
Establishing MPI communication patterns.
Setting point connectivity.
Renumbering points (Reverse Cuthill McKee Ordering).
Recomputing point connectivity.
Setting element connectivity.
Checking the numerical grid orientation.
All volume elements are correctly orientend.
All surface elements are correctly orientend.
Identifying edges and vertices.
Setting the control volume structure.
Area of the computational grid: 32209.9.
Searching for the closest normal neighbors to the surfaces.
Storing a mapping from global to local point index.
Compute the surface curvature.
Max K: 187.986. Mean K: 8.03624. Standard deviation K: 25.2502.
Checking for periodicity.
Computing mesh quality statistics for the dual control volumes.
+--------------------------------------------------------------+
|           Mesh Quality Metric|        Minimum|        Maximum|
+--------------------------------------------------------------+
|    Orthogonality Angle (deg.)|        74.8267|        89.9996|
|     CV Face Area Aspect Ratio|        1.00294|        3358.47|
|           CV Sub-Volume Ratio|        1.00059|        1217.02|
+--------------------------------------------------------------+
Finding max control volume width.
Communicating number of neighbors.
Wetted area = 2.02163 m.
Area projection in the x-plane = 0.126264 m, y-plane = 0.995873 m.
Max. coordinate in the x-direction = 1 m, y-direction = 0.0618926 m.
Min. coordinate in the x-direction = 0 m, y-direction = -0.061171 m.
Computing wall distances.

-------------------- Solver Preprocessing ( Zone 0 ) --------------------
WARNING: AoA in the solution file (2.77791 deg.) +
         AoA offset in mesh file (0 deg.) = 2.77791 deg.
WARNING: SU2 will use the dCD/dCL provided in the direct solution file: 0.0183653.
WARNING: SU2 will use the dCMz/dCL provided in the direct solution file: 0.00375159.
Viscous flow: Computing pressure using the ideal gas law
based on the free-stream temperature and a density computed
from the Reynolds number.
Force coefficients computed using free-stream values.

-- Models:
+------------------------------------------------------------------------------+
|          Viscosity Model|        Conductivity Model|              Fluid Model|
+------------------------------------------------------------------------------+
|               SUTHERLAND|          CONSTANT_PRANDTL|             STANDARD_AIR|
+------------------------------------------------------------------------------+
-- Fluid properties:
+------------------------------------------------------------------------------+
|                  Name|    Dim. value|    Ref. value|      Unit|Non-dim. value|
+------------------------------------------------------------------------------+
|        Ref. Viscosity|     1.716e-05|             1|   N.s/m^2|     1.716e-05|
|      Sutherland Temp.|        273.15|             1|         K|        273.15|
|     Sutherland Const.|         110.4|             1|         K|         110.4|
+------------------------------------------------------------------------------+
|        Prandtl (Lam.)|             -|             -|         -|          0.71|
|       Prandtl (Turb.)|             -|             -|         -|           0.9|
+------------------------------------------------------------------------------+
|          Gas Constant|       287.058|             1|  N.m/kg.K|       287.058|
|      Spec. Heat Ratio|             -|             -|         -|           1.4|
+------------------------------------------------------------------------------+
-- Initial and free-stream conditions:
+------------------------------------------------------------------------------+
|                  Name|    Dim. value|    Ref. value|      Unit|Non-dim. value|
+------------------------------------------------------------------------------+
|       Static Pressure|         38515|             1|        Pa|         38515|
|               Density|      0.465631|             1|    kg/m^3|      0.465631|
|           Temperature|        288.15|             1|         K|        288.15|
|          Total Energy|        237984|             1|   m^2/s^2|        237984|
|            Velocity-X|       249.485|             1|       m/s|       249.485|
|            Velocity-Y|       12.1054|             1|       m/s|       12.1054|
|    Velocity Magnitude|       249.778|             1|       m/s|       249.778|
+------------------------------------------------------------------------------+
|             Viscosity|    1.7893e-05|             1|   N.s/m^2|    1.7893e-05|
|          Conductivity|             -|             1|   W/m^2.K|             -|
|     Turb. Kin. Energy|       233.959|             1|   m^2/s^2|       233.959|
|     Spec. Dissipation|        608834|             1|       1/s|        608834|
+------------------------------------------------------------------------------+
|           Mach Number|             -|             -|         -|         0.734|
|       Reynolds Number|             -|             -|         -|       6.5e+06|
+------------------------------------------------------------------------------+
Initialize Jacobian structure (Navier-Stokes). MG level: 0.
Initialize Jacobian structure (SA model).

------------------- Numerics Preprocessing ( Zone 0 ) -------------------

----------------- Integration Preprocessing ( Zone 0 ) ------------------

------------------- Iteration Preprocessing ( Zone 0 ) ------------------
Euler/Navier-Stokes/RANS fluid iteration.

------------------------------ Begin Solver -----------------------------

Simulation Run using the Single-zone Driver
WARNING: SU2 was not compiled for an AVX-capable architecture. Performance could be better,
         see https://su2code.github.io/docs_v7/Build-SU2-Linux-MacOS/#compiler-optimizations
+----------------------------------------------------------------+
|  Inner_Iter|    rms[Rho]|     rms[nu]|          CL|          CD|
+----------------------------------------------------------------+
|           0|   -4.428410|   -5.767327|    0.824211|    0.012184|
|           1|   -4.488359|   -5.880396|    0.824324|    0.012247|
|           2|   -4.554053|   -6.012522|    0.824353|    0.012280|
|           3|   -4.601392|   -6.162536|    0.824334|    0.012290|
|           4|   -4.628290|   -6.323642|    0.824301|    0.012289|
|           5|   -4.640705|   -6.452769|    0.824274|    0.012285|
|           6|   -4.644653|   -6.482234|    0.824263|    0.012282|
|           7|   -4.644571|   -6.446353|    0.824265|    0.012284|
|           8|   -4.643186|   -6.411387|    0.824276|    0.012289|
|           9|   -4.641385|   -6.392207|    0.824293|    0.012296|
|          10|   -4.638628|   -6.380151|    0.824314|    0.012305|
|          11|   -4.633893|   -6.363935|    0.824337|    0.012314|
|          12|   -4.626545|   -6.339495|    0.824360|    0.012324|
|          13|   -4.616706|   -6.310958|    0.824384|    0.012334|
|          14|   -4.605117|   -6.284825|    0.824406|    0.012343|
|          15|   -4.592787|   -6.265506|    0.824424|    0.012353|
|          16|   -4.580688|   -6.254728|    0.824439|    0.012361|
|          17|   -4.569601|   -6.252485|    0.824447|    0.012369|
|          18|   -4.560090|   -6.257854|    0.824449|    0.012376|
|          19|   -4.552543|   -6.269308|    0.824443|    0.012383|
|          20|   -4.547210|   -6.284737|    0.824429|    0.012388|
|          21|   -4.544211|   -6.301481|    0.824406|    0.012392|
|          22|   -4.543532|   -6.316733|    0.824374|    0.012395|
|          23|   -4.544988|   -6.328371|    0.824333|    0.012396|
|          24|   -4.548223|   -6.335793|    0.824284|    0.012397|
|          25|   -4.552719|   -6.340088|    0.824229|    0.012395|
|          26|   -4.557852|   -6.343317|    0.824167|    0.012393|
|          27|   -4.562972|   -6.347511|    0.824101|    0.012388|
|          28|   -4.567501|   -6.353956|    0.824032|    0.012382|
|          29|   -4.571003|   -6.362968|    0.823961|    0.012375|
|          30|   -4.573227|   -6.373961|    0.823891|    0.012366|
|          31|   -4.574100|   -6.385736|    0.823821|    0.012355|
|          32|   -4.573695|   -6.396871|    0.823753|    0.012342|
|          33|   -4.572186|   -6.406175|    0.823688|    0.012328|
|          34|   -4.569812|   -6.413045|    0.823627|    0.012312|
|          35|   -4.566848|   -6.417605|    0.823570|    0.012294|
|          36|   -4.563584|   -6.420538|    0.823518|    0.012275|
|          37|   -4.560302|   -6.422793|    0.823470|    0.012255|
|          38|   -4.557247|   -6.425287|    0.823427|    0.012234|
|          39|   -4.554609|   -6.428707|    0.823389|    0.012212|
|          40|   -4.552500|   -6.433445|    0.823356|    0.012190|
|          41|   -4.550947|   -6.439607|    0.823328|    0.012167|
|          42|   -4.549893|   -6.447048|    0.823304|    0.012145|
|          43|   -4.549215|   -6.455401|    0.823285|    0.012123|
|          44|   -4.548746|   -6.464106|    0.823270|    0.012101|
|          45|   -4.548299|   -6.472447|    0.823260|    0.012080|
|          46|   -4.547696|   -6.479610|    0.823254|    0.012060|
|          47|   -4.546792|   -6.484795|    0.823252|    0.012042|
|          48|   -4.545480|   -6.487345|    0.823254|    0.012024|
|          49|   -4.543701|   -6.486978|    0.823261|    0.012007|
|          50|   -4.541432|   -6.483858|    0.823271|    0.011991|
|          51|   -4.538684|   -6.478582|    0.823286|    0.011977|
|          52|   -4.535482|   -6.472023|    0.823304|    0.011963|
|          53|   -4.531862|   -6.465180|    0.823326|    0.011951|
|          54|   -4.527860|   -6.458993|    0.823352|    0.011939|
|          55|   -4.523513|   -6.454220|    0.823382|    0.011929|
|          56|   -4.518853|   -6.451392|    0.823416|    0.011919|
|          57|   -4.513911|   -6.450781|    0.823453|    0.011910|
|          58|   -4.508717|   -6.452447|    0.823493|    0.011901|
|          59|   -4.503301|   -6.456263|    0.823536|    0.011894|
|          60|   -4.497694|   -6.461963|    0.823581|    0.011887|
|          61|   -4.491927|   -6.469179|    0.823629|    0.011880|
|          62|   -4.486035|   -6.477486|    0.823678|    0.011875|
|          63|   -4.480051|   -6.486445|    0.823729|    0.011870|
|          64|   -4.474012|   -6.495662|    0.823779|    0.011866|
|          65|   -4.467956|   -6.504813|    0.823830|    0.011863|
|          66|   -4.461922|   -6.513653|    0.823879|    0.011860|
|          67|   -4.455948|   -6.522008|    0.823928|    0.011858|
|          68|   -4.450069|   -6.529756|    0.823974|    0.011857|
|          69|   -4.444320|   -6.536805|    0.824018|    0.011856|
|          70|   -4.438728|   -6.543082|    0.824059|    0.011855|
|          71|   -4.433316|   -6.548513|    0.824096|    0.011856|
|          72|   -4.428100|   -6.553063|    0.824130|    0.011856|
|          73|   -4.423087|   -6.556723|    0.824161|    0.011857|
|          74|   -4.418279|   -6.559513|    0.824188|    0.011858|
|          75|   -4.413669|   -6.561489|    0.824211|    0.011860|
|          76|   -4.409245|   -6.562724|    0.824231|    0.011862|
|          77|   -4.404991|   -6.563284|    0.824248|    0.011863|
|          78|   -4.400891|   -6.563218|    0.824262|    0.011866|
|          79|   -4.396925|   -6.562562|    0.824273|    0.011868|
|          80|   -4.393081|   -6.561338|    0.824282|    0.011870|
|          81|   -4.389349|   -6.559564|    0.824289|    0.011873|
|          82|   -4.385729|   -6.557285|    0.824295|    0.011875|
|          83|   -4.382229|   -6.554589|    0.824299|    0.011878|
|          84|   -4.378866|   -6.551603|    0.824303|    0.011881|
|          85|   -4.375666|   -6.548494|    0.824305|    0.011885|
|          86|   -4.372665|   -6.545459|    0.824308|    0.011888|
|          87|   -4.369902|   -6.542708|    0.824310|    0.011892|
|          88|   -4.367420|   -6.540441|    0.824313|    0.011896|
|          89|   -4.365263|   -6.538828|    0.824316|    0.011901|
|          90|   -4.363471|   -6.537997|    0.824319|    0.011906|
|          91|   -4.362078|   -6.538028|    0.824323|    0.011911|
|          92|   -4.361109|   -6.538948|    0.824327|    0.011917|
|          93|   -4.360580|   -6.540729|    0.824332|    0.011923|
|          94|   -4.360497|   -6.543300|    0.824338|    0.011929|
|          95|   -4.360851|   -6.546562|    0.824344|    0.011936|
|          96|   -4.361624|   -6.550397|    0.824351|    0.011944|
|          97|   -4.362783|   -6.554674|    0.824359|    0.011951|
|          98|   -4.364288|   -6.559266|    0.824367|    0.011959|
|          99|   -4.366085|   -6.564056|    0.824375|    0.011968|
|         100|   -4.368114|   -6.568942|    0.824383|    0.011976|
|         101|   -4.370307|   -6.573842|    0.824393|    0.011958|
+-----------------------------------------------------------------------+
|Fixed CL Mode                           |Value                         |
+-----------------------------------------------------------------------+
|Current CL                              |0.824393                      |
|Target CL                               |0.824                         |
|Previous AOA                            |2.77791                       |
|Changed AoA by                          |-0.00191744                   |
+-----------------------------------------------------------------------+
+----------------------------------------------------------------+
|  Inner_Iter|    rms[Rho]|     rms[nu]|          CL|          CD|
+----------------------------------------------------------------+
|         102|   -2.910159|   -6.550489|    0.824401|    0.011967|
|         103|   -3.291098|   -6.568696|    0.824410|    0.011976|
|         104|   -3.527671|   -6.577453|    0.824418|    0.011985|
|         105|   -3.605112|   -6.584297|    0.824425|    0.011995|
|         106|   -3.660226|   -6.590414|    0.824433|    0.012004|
|         107|   -3.731289|   -6.596100|    0.824439|    0.012013|
|         108|   -3.818306|   -6.601467|    0.824444|    0.012022|
|         109|   -3.908324|   -6.606596|    0.824448|    0.012031|
|         110|   -3.984251|   -6.611542|    0.824452|    0.012039|
|         111|   -4.036949|   -6.616329|    0.824454|    0.012047|
|         112|   -4.067971|   -6.620985|    0.824454|    0.012055|
|         113|   -4.082136|   -6.625569|    0.824454|    0.012062|
|         114|   -4.084666|   -6.630160|    0.824452|    0.012069|
|         115|   -4.082058|   -6.634820|    0.824449|    0.012076|
|         116|   -4.080531|   -6.639587|    0.824444|    0.012081|
|         117|   -4.083729|   -6.644477|    0.824439|    0.012087|
|         118|   -4.092118|   -6.649503|    0.824432|    0.012091|
|         119|   -4.103813|   -6.654679|    0.824425|    0.012095|
|         120|   -4.116052|   -6.660020|    0.824416|    0.012099|
|         121|   -4.126723|   -6.665536|    0.824407|    0.012102|
|         122|   -4.135223|   -6.671232|    0.824398|    0.012104|
|         123|   -4.142221|   -6.677105|    0.824388|    0.012107|
|         124|   -4.148774|   -6.683153|    0.824378|    0.012108|
|         125|   -4.155613|   -6.689379|    0.824368|    0.012109|
|         126|   -4.162954|   -6.695794|    0.824358|    0.012110|
|         127|   -4.170666|   -6.702413|    0.824348|    0.012110|
|         128|   -4.178499|   -6.709253|    0.824339|    0.012111|
|         129|   -4.186205|   -6.716315|    0.824330|    0.012110|
|         130|   -4.193573|   -6.723592|    0.824321|    0.012110|
|         131|   -4.200446|   -6.731062|    0.824313|    0.012109|
|         132|   -4.206766|   -6.738678|    0.824306|    0.012109|
|         133|   -4.212609|   -6.746383|    0.824299|    0.012108|
|         134|   -4.218177|   -6.754102|    0.824292|    0.012107|
|         135|   -4.223734|   -6.761739|    0.824287|    0.012106|
|         136|   -4.229516|   -6.769187|    0.824281|    0.012104|
|         137|   -4.235656|   -6.776348|    0.824276|    0.012103|
|         138|   -4.242137|   -6.783104|    0.824271|    0.012102|
|         139|   -4.248788|   -6.789346|    0.824267|    0.012100|
|         140|   -4.255308|   -6.794980|    0.824262|    0.012099|
|         141|   -4.261320|   -6.799949|    0.824258|    0.012097|
|         142|   -4.266456|   -6.804227|    0.824253|    0.012095|
|         143|   -4.270446|   -6.807817|    0.824248|    0.012093|
|         144|   -4.273191|   -6.810755|    0.824243|    0.012091|
|         145|   -4.274781|   -6.813107|    0.824237|    0.012089|
|         146|   -4.275466|   -6.814959|    0.824231|    0.012087|
|         147|   -4.275569|   -6.816408|    0.824224|    0.012085|
|         148|   -4.275404|   -6.817557|    0.824216|    0.012082|
|         149|   -4.275204|   -6.818498|    0.824207|    0.012079|
|         150|   -4.275089|   -6.819297|    0.824198|    0.012076|
|         151|   -4.275069|   -6.820016|    0.824187|    0.012073|
|         152|   -4.275069|   -6.820691|    0.824175|    0.012069|
|         153|   -4.274973|   -6.821328|    0.824163|    0.012066|
|         154|   -4.274660|   -6.821920|    0.824149|    0.012062|
|         155|   -4.274044|   -6.822432|    0.824135|    0.012058|
|         156|   -4.273084|   -6.822845|    0.824120|    0.012053|
|         157|   -4.271789|   -6.823086|    0.824104|    0.012049|
|         158|   -4.270212|   -6.823086|    0.824087|    0.012044|
|         159|   -4.268429|   -6.822779|    0.824069|    0.012040|
|         160|   -4.266523|   -6.822114|    0.824051|    0.012035|
|         161|   -4.264572|   -6.821054|    0.824033|    0.012030|
|         162|   -4.262639|   -6.819577|    0.824015|    0.012024|
|         163|   -4.260770|   -6.817683|    0.823996|    0.012019|
|         164|   -4.258995|   -6.815398|    0.823977|    0.012014|
|         165|   -4.257334|   -6.812765|    0.823959|    0.012009|
|         166|   -4.255797|   -6.809841|    0.823941|    0.012004|
|         167|   -4.254390|   -6.806694|    0.823923|    0.011998|
|         168|   -4.253119|   -6.803395|    0.823906|    0.011993|
|         169|   -4.251984|   -6.800021|    0.823890|    0.011988|
|         170|   -4.250988|   -6.796642|    0.823875|    0.011984|
|         171|   -4.250127|   -6.793324|    0.823861|    0.011979|
|         172|   -4.249397|   -6.790125|    0.823847|    0.011974|
|         173|   -4.248792|   -6.787097|    0.823836|    0.011970|
|         174|   -4.248303|   -6.784283|    0.823825|    0.011966|
|         175|   -4.247921|   -6.781713|    0.823816|    0.011962|
|         176|   -4.247637|   -6.779407|    0.823808|    0.011958|
|         177|   -4.247442|   -6.777377|    0.823802|    0.011954|
|         178|   -4.247332|   -6.775625|    0.823797|    0.011951|
|         179|   -4.247302|   -6.774149|    0.823793|    0.011948|
|         180|   -4.247351|   -6.772939|    0.823791|    0.011945|
|         181|   -4.247483|   -6.771983|    0.823791|    0.011942|
|         182|   -4.247702|   -6.771262|    0.823792|    0.011940|
|         183|   -4.248011|   -6.770763|    0.823795|    0.011937|
|         184|   -4.248418|   -6.770469|    0.823798|    0.011935|
|         185|   -4.248928|   -6.770366|    0.823803|    0.011933|
|         186|   -4.249544|   -6.770439|    0.823809|    0.011931|
|         187|   -4.250269|   -6.770673|    0.823817|    0.011930|
|         188|   -4.251099|   -6.771053|    0.823825|    0.011928|
|         189|   -4.252030|   -6.771565|    0.823834|    0.011927|
|         190|   -4.253051|   -6.772197|    0.823845|    0.011926|
|         191|   -4.254147|   -6.772941|    0.823855|    0.011925|
|         192|   -4.255298|   -6.773785|    0.823867|    0.011924|
|         193|   -4.256480|   -6.774721|    0.823879|    0.011924|
|         194|   -4.257663|   -6.775743|    0.823892|    0.011923|
|         195|   -4.258817|   -6.776842|    0.823905|    0.011923|
|         196|   -4.259908|   -6.778013|    0.823919|    0.011922|
|         197|   -4.260905|   -6.779249|    0.823933|    0.011922|
|         198|   -4.261777|   -6.780541|    0.823947|    0.011922|
|         199|   -4.262496|   -6.781887|    0.823961|    0.011923|
|         200|   -4.263042|   -6.783278|    0.823975|    0.011923|
|         201|   -4.263401|   -6.784711|    0.823990|    0.011925|
+-----------------------------------------------------------------------+
|Fixed CL Mode                           |Value                         |
+-----------------------------------------------------------------------+
|Current CL                              |0.82399                       |
|Target CL                               |0.824                         |
|Previous AOA                            |2.77599                       |
|Changed AoA by                          |0.000123897                   |
+-----------------------------------------------------------------------+
+----------------------------------------------------------------+
|  Inner_Iter|    rms[Rho]|     rms[nu]|          CL|          CD|
+----------------------------------------------------------------+
|         202|   -4.015471|   -6.785981|    0.824004|    0.011926|
|         203|   -4.199137|   -6.787713|    0.824018|    0.011927|
|         204|   -4.246193|   -6.789340|    0.824032|    0.011928|
|         205|   -4.253875|   -6.790943|    0.824046|    0.011929|
|         206|   -4.255663|   -6.792542|    0.824060|    0.011930|
|         207|   -4.256536|   -6.794150|    0.824073|    0.011931|
|         208|   -4.257117|   -6.795782|    0.824086|    0.011933|
|         209|   -4.257378|   -6.797449|    0.824099|    0.011935|
|         210|   -4.257423|   -6.799168|    0.824111|    0.011937|
|         211|   -4.257490|   -6.800949|    0.824123|    0.011939|
|         212|   -4.257775|   -6.802804|    0.824135|    0.011941|
|         213|   -4.258391|   -6.804743|    0.824145|    0.011943|
|         214|   -4.259420|   -6.806775|    0.824155|    0.011946|
|         215|   -4.260949|   -6.808911|    0.824165|    0.011949|
|         216|   -4.263062|   -6.811160|    0.824174|    0.011951|
|         217|   -4.265819|   -6.813532|    0.824182|    0.011954|
|         218|   -4.269247|   -6.816038|    0.824189|    0.011957|
|         219|   -4.273350|   -6.818689|    0.824196|    0.011961|
|         220|   -4.278120|   -6.821498|    0.824202|    0.011964|
|         221|   -4.283560|   -6.824478|    0.824207|    0.011967|
|         222|   -4.289677|   -6.827645|    0.824211|    0.011970|
|         223|   -4.296484|   -6.831012|    0.824214|    0.011974|
|         224|   -4.303982|   -6.834592|    0.824217|    0.011977|
|         225|   -4.312160|   -6.838398|    0.824218|    0.011981|
|         226|   -4.320986|   -6.842444|    0.824219|    0.011984|
|         227|   -4.330411|   -6.846744|    0.824220|    0.011988|
|         228|   -4.340367|   -6.851312|    0.824219|    0.011992|
|         229|   -4.350771|   -6.856161|    0.824218|    0.011995|
|         230|   -4.361523|   -6.861305|    0.824216|    0.011999|
|         231|   -4.372508|   -6.866754|    0.824213|    0.012002|
|         232|   -4.383601|   -6.872521|    0.824210|    0.012006|
|         233|   -4.394663|   -6.878613|    0.824207|    0.012009|
|         234|   -4.405552|   -6.885038|    0.824203|    0.012012|
|         235|   -4.416121|   -6.891801|    0.824198|    0.012015|
|         236|   -4.426224|   -6.898908|    0.824193|    0.012019|
|         237|   -4.435720|   -6.906361|    0.824188|    0.012022|
|         238|   -4.444480|   -6.914160|    0.824182|    0.012025|
|         239|   -4.452391|   -6.922302|    0.824177|    0.012028|
|         240|   -4.459361|   -6.930786|    0.824171|    0.012030|
|         241|   -4.465330|   -6.939606|    0.824165|    0.012033|
|         242|   -4.470268|   -6.948754|    0.824159|    0.012035|
|         243|   -4.474182|   -6.958222|    0.824153|    0.012038|
|         244|   -4.477114|   -6.967997|    0.824146|    0.012040|
|         245|   -4.479137|   -6.978067|    0.824140|    0.012042|
|         246|   -4.480349|   -6.988417|    0.824134|    0.012044|
|         247|   -4.480866|   -6.999033|    0.824128|    0.012046|
|         248|   -4.480817|   -7.009898|    0.824123|    0.012048|
|         249|   -4.480333|   -7.020998|    0.824117|    0.012049|
|         250|   -4.479539|   -7.032316|    0.824111|    0.012051|
|         251|   -4.478559|   -7.043839|    0.824106|    0.012052|
|         252|   -4.477502|   -7.055557|    0.824101|    0.012053|
|         253|   -4.476469|   -7.067459|    0.824095|    0.012054|
|         254|   -4.475548|   -7.079537|    0.824090|    0.012055|
|         255|   -4.474815|   -7.091782|    0.824085|    0.012056|
|         256|   -4.474337|   -7.104190|    0.824081|    0.012056|
|         257|   -4.474170|   -7.116751|    0.824076|    0.012057|
|         258|   -4.474361|   -7.129463|    0.824072|    0.012057|
|         259|   -4.474947|   -7.142317|    0.824067|    0.012057|
|         260|   -4.475961|   -7.155304|    0.824063|    0.012057|
|         261|   -4.477426|   -7.168407|    0.824058|    0.012057|
|         262|   -4.479360|   -7.181611|    0.824054|    0.012057|
|         263|   -4.481775|   -7.194891|    0.824050|    0.012056|
|         264|   -4.484680|   -7.208212|    0.824045|    0.012056|
|         265|   -4.488076|   -7.221537|    0.824041|    0.012055|
|         266|   -4.491964|   -7.234825|    0.824037|    0.012054|
|         267|   -4.496339|   -7.248027|    0.824032|    0.012053|
|         268|   -4.501193|   -7.261085|    0.824028|    0.012052|
|         269|   -4.506514|   -7.273932|    0.824024|    0.012051|
|         270|   -4.512289|   -7.286491|    0.824019|    0.012050|
|         271|   -4.518498|   -7.298678|    0.824015|    0.012048|
|         272|   -4.525120|   -7.310411|    0.824011|    0.012046|
|         273|   -4.532131|   -7.321609|    0.824006|    0.012045|
|         274|   -4.539500|   -7.332188|    0.824002|    0.012043|
|         275|   -4.547194|   -7.342069|    0.823997|    0.012041|
|         276|   -4.555176|   -7.351181|    0.823993|    0.012039|
|         277|   -4.563403|   -7.359466|    0.823989|    0.012037|
|         278|   -4.571829|   -7.366879|    0.823984|    0.012035|
|         279|   -4.580403|   -7.373391|    0.823980|    0.012032|
|         280|   -4.589069|   -7.378987|    0.823976|    0.012030|
|         281|   -4.597768|   -7.383671|    0.823973|    0.012028|
|         282|   -4.606438|   -7.387465|    0.823969|    0.012025|
|         283|   -4.615013|   -7.390410|    0.823965|    0.012023|
|         284|   -4.623426|   -7.392559|    0.823962|    0.012020|
|         285|   -4.631613|   -7.393987|    0.823959|    0.012018|
|         286|   -4.639507|   -7.394783|    0.823956|    0.012015|
|         287|   -4.647047|   -7.395049|    0.823954|    0.012012|
|         288|   -4.654179|   -7.394895|    0.823951|    0.012010|
|         289|   -4.660852|   -7.394433|    0.823950|    0.012007|
|         290|   -4.667026|   -7.393786|    0.823948|    0.012005|
|         291|   -4.672673|   -7.393079|    0.823947|    0.012002|
|         292|   -4.677772|   -7.392428|    0.823946|    0.012000|
|         293|   -4.682317|   -7.391948|    0.823945|    0.011997|
|         294|   -4.686312|   -7.391743|    0.823945|    0.011995|
|         295|   -4.689769|   -7.391914|    0.823945|    0.011993|
|         296|   -4.692715|   -7.392549|    0.823946|    0.011990|
|         297|   -4.695179|   -7.393732|    0.823947|    0.011988|
|         298|   -4.697200|   -7.395534|    0.823948|    0.011986|
|         299|   -4.698818|   -7.398014|    0.823949|    0.011984|
|         300|   -4.700079|   -7.401221|    0.823951|    0.011982|
|         301|   -4.701025|   -7.405183|    0.823953|    0.011984|
+-----------------------------------------------------------------------+
|Fixed CL Mode                           |Value                         |
+-----------------------------------------------------------------------+
|Current CL                              |0.823953                      |
|Target CL                               |0.824                         |
|Previous AOA                            |2.77611                       |
|Changed AoA by                          |0.000244314                   |
+-----------------------------------------------------------------------+
+----------------------------------------------------------------+
|  Inner_Iter|    rms[Rho]|     rms[nu]|          CL|          CD|
+----------------------------------------------------------------+
|         302|   -3.802319|   -7.391218|    0.823956|    0.011982|
|         303|   -4.175134|   -7.407174|    0.823958|    0.011980|
|         304|   -4.394776|   -7.416524|    0.823961|    0.011979|
|         305|   -4.457794|   -7.424933|    0.823965|    0.011977|
|         306|   -4.493985|   -7.433218|    0.823968|    0.011976|
|         307|   -4.535025|   -7.441503|    0.823972|    0.011975|
|         308|   -4.577573|   -7.449744|    0.823976|    0.011974|
|         309|   -4.611932|   -7.457840|    0.823980|    0.011973|
|         310|   -4.633340|   -7.465648|    0.823984|    0.011972|
|         311|   -4.644395|   -7.472990|    0.823988|    0.011971|
|         312|   -4.649603|   -7.479667|    0.823992|    0.011971|
|         313|   -4.651732|   -7.485518|    0.823997|    0.011970|
|         314|   -4.652215|   -7.490413|    0.824001|    0.011970|
|         315|   -4.652229|   -7.494233|    0.824006|    0.011970|
|         316|   -4.652844|   -7.496874|    0.824011|    0.011970|
|         317|   -4.654658|   -7.498257|    0.824016|    0.011970|
|         318|   -4.657610|   -7.498359|    0.824020|    0.011970|
|         319|   -4.661154|   -7.497210|    0.824025|    0.011970|
|         320|   -4.664656|   -7.494903|    0.824030|    0.011971|
|         321|   -4.667737|   -7.491564|    0.824034|    0.011971|
|         322|   -4.670373|   -7.487354|    0.824039|    0.011972|
|         323|   -4.672765|   -7.482454|    0.824044|    0.011972|
|         324|   -4.675143|   -7.477047|    0.824049|    0.011973|
|         325|   -4.677630|   -7.471312|    0.824053|    0.011974|
|         326|   -4.680231|   -7.465423|    0.824058|    0.011975|
|         327|   -4.682879|   -7.459531|    0.824062|    0.011976|
|         328|   -4.685504|   -7.453762|    0.824067|    0.011977|
|         329|   -4.688057|   -7.448218|    0.824071|    0.011978|
|         330|   -4.690531|   -7.442975|    0.824076|    0.011979|
|         331|   -4.692954|   -7.438083|    0.824080|    0.011980|
|         332|   -4.695390|   -7.433571|    0.824084|    0.011981|
|         333|   -4.697931|   -7.429450|    0.824088|    0.011983|
|         334|   -4.700683|   -7.425713|    0.824092|    0.011984|
|         335|   -4.703749|   -7.422340|    0.824096|    0.011985|
|         336|   -4.707207|   -7.419299|    0.824100|    0.011987|
|         337|   -4.711099|   -7.416550|    0.824104|    0.011988|
|         338|   -4.715430|   -7.414049|    0.824107|    0.011989|
|         339|   -4.720170|   -7.411750|    0.824111|    0.011991|
|         340|   -4.725261|   -7.409610|    0.824114|    0.011992|
|         341|   -4.730632|   -7.407589|    0.824117|    0.011994|
|         342|   -4.736214|   -7.405654|    0.824120|    0.011995|
|         343|   -4.741947|   -7.403780|    0.824123|    0.011996|
|         344|   -4.747795|   -7.401949|    0.824125|    0.011998|
|         345|   -4.753746|   -7.400157|    0.824128|    0.011999|
|         346|   -4.759808|   -7.398406|    0.824130|    0.012000|
|         347|   -4.765999|   -7.396707|    0.824132|    0.012002|
|         348|   -4.772334|   -7.395078|    0.824134|    0.012003|
|         349|   -4.778817|   -7.393547|    0.824135|    0.012004|
|         350|   -4.785431|   -7.392147|    0.824137|    0.012005|
|         351|   -4.792136|   -7.390917|    0.824138|    0.012006|
|         352|   -4.798874|   -7.389895|    0.824139|    0.012007|
|         353|   -4.805571|   -7.389124|    0.824140|    0.012009|
|         354|   -4.812147|   -7.388641|    0.824140|    0.012009|
|         355|   -4.818524|   -7.388484|    0.824140|    0.012010|
|         356|   -4.824626|   -7.388686|    0.824140|    0.012011|
|         357|   -4.830391|   -7.389275|    0.824140|    0.012012|
|         358|   -4.835761|   -7.390272|    0.824140|    0.012013|
|         359|   -4.840692|   -7.391694|    0.824139|    0.012014|
|         360|   -4.845145|   -7.393551|    0.824139|    0.012014|
|         361|   -4.849087|   -7.395842|    0.824137|    0.012015|
|         362|   -4.852492|   -7.398561|    0.824136|    0.012015|
|         363|   -4.855338|   -7.401692|    0.824135|    0.012016|
|         364|   -4.857614|   -7.405212|    0.824133|    0.012016|
|         365|   -4.859316|   -7.409087|    0.824131|    0.012017|
|         366|   -4.860449|   -7.413277|    0.824129|    0.012017|
|         367|   -4.861033|   -7.417732|    0.824127|    0.012017|
|         368|   -4.861097|   -7.422397|    0.824125|    0.012017|
|         369|   -4.860682|   -7.427211|    0.824122|    0.012018|
|         370|   -4.859838|   -7.432111|    0.824120|    0.012018|
|         371|   -4.858621|   -7.437024|    0.824117|    0.012018|
|         372|   -4.857096|   -7.441879|    0.824114|    0.012018|
|         373|   -4.855327|   -7.446605|    0.824111|    0.012018|
|         374|   -4.853383|   -7.451134|    0.824107|    0.012017|
|         375|   -4.851328|   -7.455398|    0.824104|    0.012017|
|         376|   -4.849230|   -7.459339|    0.824100|    0.012017|
|         377|   -4.847151|   -7.462906|    0.824097|    0.012017|
|         378|   -4.845149|   -7.466056|    0.824093|    0.012017|
|         379|   -4.843278|   -7.468760|    0.824089|    0.012016|
|         380|   -4.841589|   -7.471001|    0.824085|    0.012016|
|         381|   -4.840127|   -7.472770|    0.824081|    0.012016|
|         382|   -4.838930|   -7.474075|    0.824077|    0.012015|
|         383|   -4.838034|   -7.474930|    0.824073|    0.012015|
|         384|   -4.837466|   -7.475361|    0.824069|    0.012014|
|         385|   -4.837251|   -7.475404|    0.824065|    0.012014|
|         386|   -4.837409|   -7.475099|    0.824061|    0.012013|
|         387|   -4.837953|   -7.474494|    0.824057|    0.012013|
|         388|   -4.838893|   -7.473636|    0.824053|    0.012012|
|         389|   -4.840236|   -7.472579|    0.824049|    0.012012|
|         390|   -4.841982|   -7.471373|    0.824045|    0.012011|
|         391|   -4.844131|   -7.470065|    0.824041|    0.012011|
|         392|   -4.846677|   -7.468701|    0.824038|    0.012010|
|         393|   -4.849610|   -7.467325|    0.824034|    0.012010|
|         394|   -4.852919|   -7.465973|    0.824030|    0.012009|
|         395|   -4.856588|   -7.464679|    0.824027|    0.012009|
|         396|   -4.860599|   -7.463470|    0.824024|    0.012008|
|         397|   -4.864932|   -7.462365|    0.824021|    0.012008|
|         398|   -4.869563|   -7.461380|    0.824018|    0.012007|
|         399|   -4.874465|   -7.460523|    0.824015|    0.012007|
|         400|   -4.879610|   -7.459797|    0.824013|    0.012006|
|         401|   -4.884969|   -7.459200|    0.824010|    0.012005|
+-----------------------------------------------------------------------+
|Fixed CL Mode                           |Value                         |
+-----------------------------------------------------------------------+
|Current CL                              |0.82401                       |
|Target CL                               |0.824                         |
|Previous AOA                            |2.77636                       |
|Changed AoA by                          |-6.27483e-05                  |
+-----------------------------------------------------------------------+
+----------------------------------------------------------------+
|  Inner_Iter|    rms[Rho]|     rms[nu]|          CL|          CD|
+----------------------------------------------------------------+
|         402|   -4.374874|   -7.456410|    0.824008|    0.012004|
|         403|   -4.680598|   -7.457093|    0.824006|    0.012004|
|         404|   -4.801711|   -7.457218|    0.824004|    0.012003|
|         405|   -4.828469|   -7.457274|    0.824003|    0.012003|
|         406|   -4.846079|   -7.457313|    0.824001|    0.012003|
|         407|   -4.866308|   -7.457348|    0.824000|    0.012002|
|         408|   -4.886838|   -7.457388|    0.823999|    0.012002|
|         409|   -4.904432|   -7.457445|    0.823998|    0.012002|
|         410|   -4.918062|   -7.457526|    0.823998|    0.012001|
|         411|   -4.928553|   -7.457634|    0.823997|    0.012001|
|         412|   -4.936992|   -7.457776|    0.823997|    0.012001|
|         413|   -4.944002|   -7.457958|    0.823997|    0.012000|
|         414|   -4.949912|   -7.458190|    0.823997|    0.012000|
|         415|   -4.955044|   -7.458484|    0.823998|    0.012000|
|         416|   -4.959749|   -7.458854|    0.823998|    0.012000|
|         417|   -4.964289|   -7.459313|    0.823999|    0.012000|
|         418|   -4.968747|   -7.459880|    0.824000|    0.012000|
|         419|   -4.973053|   -7.460570|    0.824001|    0.011999|
|         420|   -4.977082|   -7.461403|    0.824003|    0.011999|
|         421|   -4.980747|   -7.462394|    0.824004|    0.011999|
|         422|   -4.984029|   -7.463558|    0.824006|    0.011999|
|         423|   -4.986945|   -7.464906|    0.824008|    0.011999|
|         424|   -4.989509|   -7.466446|    0.824010|    0.011999|
|         425|   -4.991703|   -7.468178|    0.824012|    0.011999|
|         426|   -4.993486|   -7.470102|    0.824014|    0.012000|
|         427|   -4.994818|   -7.472207|    0.824016|    0.012000|
|         428|   -4.995678|   -7.474478|    0.824019|    0.012000|
|         429|   -4.996074|   -7.476893|    0.824021|    0.012000|
|         430|   -4.996039|   -7.479427|    0.824024|    0.012000|
|         431|   -4.995624|   -7.482046|    0.824027|    0.012000|
|         432|   -4.994885|   -7.484710|    0.824030|    0.012001|
|         433|   -4.993882|   -7.487377|    0.824033|    0.012001|
|         434|   -4.992666|   -7.490000|    0.824036|    0.012001|
|         435|   -4.991278|   -7.492528|    0.824039|    0.012001|
|         436|   -4.989747|   -7.494913|    0.824042|    0.012002|
|         437|   -4.988092|   -7.497105|    0.824045|    0.012002|
|         438|   -4.986323|   -7.499058|    0.824048|    0.012003|
|         439|   -4.984447|   -7.500734|    0.824051|    0.012003|
|         440|   -4.982474|   -7.502097|    0.824054|    0.012003|
|         441|   -4.980419|   -7.503123|    0.824057|    0.012004|
|         442|   -4.978303|   -7.503795|    0.824060|    0.012004|
|         443|   -4.976157|   -7.504109|    0.824063|    0.012004|
|         444|   -4.974018|   -7.504068|    0.824066|    0.012005|
|         445|   -4.971929|   -7.503688|    0.824069|    0.012005|
|         446|   -4.969935|   -7.502992|    0.824072|    0.012006|
|         447|   -4.968079|   -7.502012|    0.824075|    0.012006|
|         448|   -4.966403|   -7.500786|    0.824077|    0.012006|
|         449|   -4.964941|   -7.499359|    0.824080|    0.012007|
|         450|   -4.963721|   -7.497779|    0.824082|    0.012007|
|         451|   -4.962769|   -7.496096|    0.824084|    0.012008|
|         452|   -4.962102|   -7.494361|    0.824086|    0.012008|
|         453|   -4.961735|   -7.492625|    0.824088|    0.012008|
|         454|   -4.961682|   -7.490936|    0.824090|    0.012008|
|         455|   -4.961954|   -7.489341|    0.824091|    0.012009|
|         456|   -4.962560|   -7.487881|    0.824093|    0.012009|
|         457|   -4.963509|   -7.486597|    0.824094|    0.012009|
|         458|   -4.964809|   -7.485522|    0.824095|    0.012009|
|         459|   -4.966463|   -7.484685|    0.824096|    0.012010|
|         460|   -4.968474|   -7.484111|    0.824097|    0.012010|
|         461|   -4.970841|   -7.483819|    0.824098|    0.012010|
|         462|   -4.973560|   -7.483823|    0.824098|    0.012010|
|         463|   -4.976621|   -7.484130|    0.824098|    0.012010|
|         464|   -4.980016|   -7.484747|    0.824098|    0.012010|
|         465|   -4.983727|   -7.485671|    0.824099|    0.012010|
|         466|   -4.987738|   -7.486898|    0.824098|    0.012010|
|         467|   -4.992027|   -7.488418|    0.824098|    0.012010|
|         468|   -4.996568|   -7.490217|    0.824098|    0.012009|
|         469|   -5.001333|   -7.492281|    0.824097|    0.012009|
|         470|   -5.006291|   -7.494587|    0.824097|    0.012009|
|         471|   -5.011405|   -7.497113|    0.824096|    0.012009|
|         472|   -5.016637|   -7.499835|    0.824095|    0.012009|
|         473|   -5.021946|   -7.502724|    0.824095|    0.012008|
|         474|   -5.027285|   -7.505755|    0.824094|    0.012008|
|         475|   -5.032609|   -7.508899|    0.824093|    0.012008|
|         476|   -5.037867|   -7.512127|    0.824092|    0.012007|
|         477|   -5.043009|   -7.515413|    0.824091|    0.012007|
|         478|   -5.047983|   -7.518730|    0.824089|    0.012006|
|         479|   -5.052740|   -7.522054|    0.824088|    0.012006|
|         480|   -5.057230|   -7.525361|    0.824087|    0.012005|
|         481|   -5.061408|   -7.528632|    0.824086|    0.012005|
|         482|   -5.065232|   -7.531852|    0.824085|    0.012004|
|         483|   -5.068667|   -7.535006|    0.824083|    0.012004|
|         484|   -5.071683|   -7.538082|    0.824082|    0.012003|
|         485|   -5.074259|   -7.541072|    0.824081|    0.012003|
|         486|   -5.076382|   -7.543971|    0.824080|    0.012002|
|         487|   -5.078046|   -7.546774|    0.824078|    0.012001|
|         488|   -5.079256|   -7.549479|    0.824077|    0.012001|
|         489|   -5.080026|   -7.552086|    0.824076|    0.012000|
|         490|   -5.080376|   -7.554596|    0.824075|    0.012000|
|         491|   -5.080336|   -7.557009|    0.824074|    0.011999|
|         492|   -5.079940|   -7.559326|    0.824072|    0.011998|
|         493|   -5.079229|   -7.561548|    0.824071|    0.011998|
|         494|   -5.078247|   -7.563673|    0.824070|    0.011997|
|         495|   -5.077042|   -7.565703|    0.824069|    0.011997|
|         496|   -5.075661|   -7.567635|    0.824068|    0.011996|
|         497|   -5.074155|   -7.569464|    0.824067|    0.011995|
|         498|   -5.072571|   -7.571184|    0.824066|    0.011995|
|         499|   -5.070956|   -7.572787|    0.824065|    0.011994|
|         500|   -5.069357|   -7.574265|    0.824064|    0.011994|
|         501|   -5.067816|   -7.575612|    0.824063|    0.011989|
+-----------------------------------------------------------------------+
|Fixed CL Mode                           |Value                         |
+-----------------------------------------------------------------------+
|Current CL                              |0.824063                      |
|Target CL                               |0.824                         |
|Previous AOA                            |2.77629                       |
|Changed AoA by                          |-0.000320323                  |
+-----------------------------------------------------------------------+
+----------------------------------------------------------------+
|  Inner_Iter|    rms[Rho]|     rms[nu]|          CL|          CD|
+----------------------------------------------------------------+
|         502|   -3.687628|   -7.507728|    0.824062|    0.011988|
|         503|   -4.071920|   -7.541852|    0.824062|    0.011988|
|         504|   -4.314391|   -7.553539|    0.824061|    0.011987|
|         505|   -4.389993|   -7.560225|    0.824060|    0.011987|
|         506|   -4.439612|   -7.564820|    0.824060|    0.011986|
|         507|   -4.503649|   -7.568065|    0.824059|    0.011986|
|         508|   -4.581285|   -7.570287|    0.824059|    0.011986|
|         509|   -4.659139|   -7.571747|    0.824059|    0.011985|
|         510|   -4.722399|   -7.572644|    0.824059|    0.011985|
|         511|   -4.765920|   -7.573095|    0.824058|    0.011985|
|         512|   -4.793373|   -7.573197|    0.824058|    0.011985|
|         513|   -4.809257|   -7.573083|    0.824058|    0.011985|
|         514|   -4.817055|   -7.572900|    0.824058|    0.011984|
|         515|   -4.820953|   -7.572756|    0.824059|    0.011984|
|         516|   -4.825427|   -7.572686|    0.824059|    0.011984|
|         517|   -4.833460|   -7.572687|    0.824059|    0.011984|
|         518|   -4.845667|   -7.572749|    0.824060|    0.011984|
|         519|   -4.860704|   -7.572881|    0.824060|    0.011984|
|         520|   -4.876438|   -7.573101|    0.824061|    0.011985|
|         521|   -4.891241|   -7.573417|    0.824061|    0.011985|
|         522|   -4.904720|   -7.573819|    0.824062|    0.011985|
|         523|   -4.917501|   -7.574283|    0.824062|    0.011985|
|         524|   -4.930438|   -7.574776|    0.824063|    0.011985|
|         525|   -4.943968|   -7.575269|    0.824064|    0.011986|
|         526|   -4.957936|   -7.575740|    0.824065|    0.011986|
|         527|   -4.971789|   -7.576180|    0.824066|    0.011987|
|         528|   -4.984869|   -7.576591|    0.824067|    0.011987|
|         529|   -4.996631|   -7.576977|    0.824067|    0.011987|
|         530|   -5.006751|   -7.577345|    0.824068|    0.011988|
|         531|   -5.015167|   -7.577702|    0.824069|    0.011988|
|         532|   -5.022096|   -7.578054|    0.824070|    0.011989|
|         533|   -5.028001|   -7.578402|    0.824071|    0.011990|
|         534|   -5.033495|   -7.578745|    0.824072|    0.011990|
|         535|   -5.039197|   -7.579072|    0.824073|    0.011991|
|         536|   -5.045593|   -7.579369|    0.824073|    0.011991|
|         537|   -5.052945|   -7.579620|    0.824074|    0.011992|
|         538|   -5.061262|   -7.579807|    0.824075|    0.011993|
|         539|   -5.070307|   -7.579914|    0.824075|    0.011993|
|         540|   -5.079644|   -7.579925|    0.824076|    0.011994|
|         541|   -5.088720|   -7.579827|    0.824076|    0.011995|
|         542|   -5.096974|   -7.579614|    0.824076|    0.011996|
|         543|   -5.103969|   -7.579284|    0.824076|    0.011996|
|         544|   -5.109500|   -7.578844|    0.824076|    0.011997|
|         545|   -5.113633|   -7.578301|    0.824076|    0.011998|
|         546|   -5.116667|   -7.577666|    0.824076|    0.011999|
|         547|   -5.119024|   -7.576955|    0.824076|    0.011999|
|         548|   -5.121125|   -7.576186|    0.824075|    0.012000|
|         549|   -5.123291|   -7.575373|    0.824075|    0.012001|
|         550|   -5.125688|   -7.574536|    0.824074|    0.012001|
|         551|   -5.128331|   -7.573694|    0.824073|    0.012002|
|         552|   -5.131112|   -7.572864|    0.824072|    0.012003|
|         553|   -5.133858|   -7.572069|    0.824071|    0.012003|
|         554|   -5.136388|   -7.571328|    0.824069|    0.012004|
|         555|   -5.138564|   -7.570666|    0.824068|    0.012005|
|         556|   -5.140317|   -7.570103|    0.824066|    0.012005|
|         557|   -5.141655|   -7.569661|    0.824064|    0.012006|
|         558|   -5.142653|   -7.569363|    0.824062|    0.012006|
|         559|   -5.143424|   -7.569232|    0.824060|    0.012007|
|         560|   -5.144096|   -7.569293|    0.824058|    0.012007|
|         561|   -5.144789|   -7.569567|    0.824055|    0.012008|
|         562|   -5.145598|   -7.570078|    0.824053|    0.012008|
|         563|   -5.146594|   -7.570848|    0.824050|    0.012009|
|         564|   -5.147821|   -7.571898|    0.824047|    0.012009|
|         565|   -5.149307|   -7.573244|    0.824044|    0.012009|
|         566|   -5.151067|   -7.574902|    0.824041|    0.012009|
|         567|   -5.153114|   -7.576882|    0.824038|    0.012010|
|         568|   -5.155460|   -7.579190|    0.824035|    0.012010|
|         569|   -5.158119|   -7.581827|    0.824032|    0.012010|
|         570|   -5.161106|   -7.584790|    0.824029|    0.012010|
|         571|   -5.164436|   -7.588070|    0.824025|    0.012010|
|         572|   -5.168125|   -7.591644|    0.824022|    0.012010|
|         573|   -5.172182|   -7.595492|    0.824019|    0.012010|
|         574|   -5.176615|   -7.599588|    0.824016|    0.012010|
|         575|   -5.181427|   -7.603895|    0.824013|    0.012010|
|         576|   -5.186617|   -7.608372|    0.824011|    0.012010|
|         577|   -5.192180|   -7.612968|    0.824008|    0.012009|
|         578|   -5.198107|   -7.617622|    0.824005|    0.012009|
|         579|   -5.204385|   -7.622274|    0.824003|    0.012009|
|         580|   -5.211001|   -7.626863|    0.824001|    0.012009|
|         581|   -5.217934|   -7.631325|    0.823999|    0.012008|
|         582|   -5.225162|   -7.635599|    0.823997|    0.012008|
|         583|   -5.232659|   -7.639632|    0.823995|    0.012008|
|         584|   -5.240394|   -7.643379|    0.823993|    0.012007|
|         585|   -5.248331|   -7.646807|    0.823992|    0.012007|
|         586|   -5.256431|   -7.649893|    0.823991|    0.012006|
|         587|   -5.264649|   -7.652629|    0.823990|    0.012006|
|         588|   -5.272935|   -7.655022|    0.823989|    0.012005|
|         589|   -5.281236|   -7.657091|    0.823988|    0.012005|
|         590|   -5.289495|   -7.658870|    0.823988|    0.012004|
|         591|   -5.297649|   -7.660399|    0.823987|    0.012004|
|         592|   -5.305635|   -7.661732|    0.823987|    0.012003|
|         593|   -5.313388|   -7.662931|    0.823987|    0.012002|
|         594|   -5.320840|   -7.664061|    0.823988|    0.012002|
|         595|   -5.327928|   -7.665187|    0.823988|    0.012001|
|         596|   -5.334588|   -7.666374|    0.823988|    0.012000|
|         597|   -5.340763|   -7.667682|    0.823989|    0.012000|
|         598|   -5.346403|   -7.669165|    0.823989|    0.011999|
|         599|   -5.351464|   -7.670868|    0.823990|    0.011998|
|         600|   -5.355915|   -7.672833|    0.823991|    0.011997|
|         601|   -5.359737|   -7.675092|    0.823992|    0.011997|
+-----------------------------------------------------------------------+
|Fixed CL Mode                           |Value                         |
+-----------------------------------------------------------------------+
|Current CL                              |0.823992                      |
|Target CL                               |0.824                         |
|Previous AOA                            |2.77597                       |
|Changed AoA by                          |4.46896e-05                   |
+-----------------------------------------------------------------------+
+----------------------------------------------------------------+
|  Inner_Iter|    rms[Rho]|     rms[nu]|          CL|          CD|
+----------------------------------------------------------------+
|         602|   -4.537942|   -7.675040|    0.823993|    0.011996|
|         603|   -4.900292|   -7.679149|    0.823994|    0.011996|
|         604|   -5.100289|   -7.682690|    0.823995|    0.011995|
|         605|   -5.157385|   -7.686415|    0.823996|    0.011994|
|         606|   -5.192810|   -7.690435|    0.823998|    0.011994|
|         607|   -5.232094|   -7.694756|    0.823999|    0.011993|
|         608|   -5.271277|   -7.699354|    0.824000|    0.011992|
|         609|   -5.301846|   -7.704196|    0.824002|    0.011991|
|         610|   -5.320197|   -7.709242|    0.824003|    0.011991|
|         611|   -5.328970|   -7.714450|    0.824004|    0.011990|
|         612|   -5.332224|   -7.719779|    0.824006|    0.011990|
|         613|   -5.332518|   -7.725191|    0.824007|    0.011989|
|         614|   -5.331289|   -7.730657|    0.824009|    0.011988|
|         615|   -5.329705|   -7.736144|    0.824010|    0.011988|
|         616|   -5.328760|   -7.741618|    0.824011|    0.011987|
|         617|   -5.328987|   -7.747052|    0.824013|    0.011987|
|         618|   -5.330340|   -7.752423|    0.824014|    0.011986|
|         619|   -5.332363|   -7.757710|    0.824015|    0.011986|
|         620|   -5.334524|   -7.762900|    0.824016|    0.011985|
|         621|   -5.336497|   -7.767979|    0.824017|    0.011985|
|         622|   -5.338247|   -7.772940|    0.824018|    0.011985|
|         623|   -5.339949|   -7.777776|    0.824019|    0.011984|
|         624|   -5.341837|   -7.782483|    0.824020|    0.011984|
|         625|   -5.344090|   -7.787058|    0.824021|    0.011984|
|         626|   -5.346810|   -7.791501|    0.824022|    0.011984|
|         627|   -5.350038|   -7.795821|    0.824023|    0.011984|
|         628|   -5.353777|   -7.800024|    0.824024|    0.011984|
|         629|   -5.358011|   -7.804135|    0.824024|    0.011984|
|         630|   -5.362713|   -7.808148|    0.824025|    0.011984|
|         631|   -5.367845|   -7.812056|    0.824026|    0.011984|
|         632|   -5.373378|   -7.815849|    0.824026|    0.011984|
|         633|   -5.379297|   -7.819517|    0.824027|    0.011984|
|         634|   -5.385608|   -7.823057|    0.824027|    0.011984|
|         635|   -5.392333|   -7.826481|    0.824027|    0.011984|
|         636|   -5.399500|   -7.829766|    0.824028|    0.011984|
|         637|   -5.407134|   -7.832892|    0.824028|    0.011985|
|         638|   -5.415242|   -7.835841|    0.824028|    0.011985|
|         639|   -5.423812|   -7.838602|    0.824028|    0.011985|
|         640|   -5.432808|   -7.841181|    0.824029|    0.011986|
|         641|   -5.442174|   -7.843587|    0.824029|    0.011986|
|         642|   -5.451840|   -7.845829|    0.824029|    0.011987|
|         643|   -5.461729|   -7.847922|    0.824029|    0.011987|
|         644|   -5.471770|   -7.849881|    0.824029|    0.011988|
|         645|   -5.481907|   -7.851727|    0.824029|    0.011988|
|         646|   -5.492094|   -7.853480|    0.824030|    0.011989|
|         647|   -5.502297|   -7.855159|    0.824030|    0.011989|
|         648|   -5.512483|   -7.856786|    0.824030|    0.011990|
|         649|   -5.522613|   -7.858380|    0.824030|    0.011991|
|         650|   -5.532635|   -7.859956|    0.824030|    0.011991|
|         651|   -5.542479|   -7.861532|    0.824031|    0.011992|
|         652|   -5.552060|   -7.863125|    0.824031|    0.011993|
|         653|   -5.561284|   -7.864747|    0.824031|    0.011994|
|         654|   -5.570056|   -7.866405|    0.824031|    0.011994|
|         655|   -5.578284|   -7.868107|    0.824032|    0.011995|
|         656|   -5.585894|   -7.869857|    0.824032|    0.011996|
|         657|   -5.592829|   -7.871656|    0.824032|    0.011997|
|         658|   -5.599053|   -7.873501|    0.824032|    0.011997|
|         659|   -5.604553|   -7.875381|    0.824033|    0.011998|
|         660|   -5.609333|   -7.877284|    0.824033|    0.011999|
|         661|   -5.613412|   -7.879189|    0.824033|    0.012000|
|         662|   -5.616824|   -7.881076|    0.824034|    0.012001|
|         663|   -5.619611|   -7.882920|    0.824034|    0.012002|
|         664|   -5.621828|   -7.884700|    0.824034|    0.012002|
|         665|   -5.623532|   -7.886388|    0.824035|    0.012003|
|         666|   -5.624790|   -7.887960|    0.824035|    0.012004|
|         667|   -5.625671|   -7.889391|    0.824035|    0.012005|
|         668|   -5.626251|   -7.890661|    0.824035|    0.012005|
|         669|   -5.626603|   -7.891755|    0.824035|    0.012006|
|         670|   -5.626804|   -7.892666|    0.824035|    0.012007|
|         671|   -5.626926|   -7.893392|    0.824035|    0.012007|
|         672|   -5.627039|   -7.893943|    0.824035|    0.012008|
|         673|   -5.627208|   -7.894334|    0.824035|    0.012009|
|         674|   -5.627493|   -7.894590|    0.824035|    0.012009|
|         675|   -5.627950|   -7.894742|    0.824035|    0.012010|
|         676|   -5.628629|   -7.894828|    0.824034|    0.012010|
|         677|   -5.629573|   -7.894889|    0.824034|    0.012011|
|         678|   -5.630822|   -7.894968|    0.824034|    0.012011|
|         679|   -5.632411|   -7.895112|    0.824033|    0.012012|
|         680|   -5.634370|   -7.895363|    0.824032|    0.012012|
|         681|   -5.636723|   -7.895762|    0.824032|    0.012012|
|         682|   -5.639492|   -7.896349|    0.824031|    0.012012|
|         683|   -5.642693|   -7.897153|    0.824030|    0.012013|
|         684|   -5.646339|   -7.898201|    0.824029|    0.012013|
|         685|   -5.650439|   -7.899511|    0.824029|    0.012013|
|         686|   -5.654998|   -7.901093|    0.824028|    0.012013|
|         687|   -5.660017|   -7.902949|    0.824027|    0.012013|
|         688|   -5.665491|   -7.905072|    0.824026|    0.012013|
|         689|   -5.671415|   -7.907448|    0.824025|    0.012013|
|         690|   -5.677777|   -7.910053|    0.824023|    0.012013|
|         691|   -5.684562|   -7.912859|    0.824022|    0.012013|
|         692|   -5.691748|   -7.915831|    0.824021|    0.012013|
|         693|   -5.699312|   -7.918926|    0.824020|    0.012012|
|         694|   -5.707223|   -7.922095|    0.824019|    0.012012|
|         695|   -5.715447|   -7.925288|    0.824018|    0.012012|
|         696|   -5.723943|   -7.928454|    0.824017|    0.012012|
|         697|   -5.732665|   -7.931542|    0.824016|    0.012011|
|         698|   -5.741562|   -7.934504|    0.824015|    0.012011|
|         699|   -5.750576|   -7.937296|    0.824014|    0.012010|
|         700|   -5.759646|   -7.939881|    0.824013|    0.012010|
|         701|   -5.768704|   -7.942228|    0.824012|    0.012009|
+-----------------------------------------------------------------------+
|Fixed CL Mode                           |Value                         |
+-----------------------------------------------------------------------+
|Current CL                              |0.824012                      |
|Target CL                               |0.824                         |
|Previous AOA                            |2.77602                       |
|Changed AoA by                          |-6.28994e-05                  |
+-----------------------------------------------------------------------+
+----------------------------------------------------------------+
|  Inner_Iter|    rms[Rho]|     rms[nu]|          CL|          CD|
+----------------------------------------------------------------+
|         702|   -4.394595|   -7.928388|    0.824011|    0.012008|
|         703|   -4.778460|   -7.938378|    0.824010|    0.012008|
|         704|   -5.020420|   -7.942286|    0.824009|    0.012007|
|         705|   -5.096900|   -7.944798|    0.824008|    0.012006|
|         706|   -5.147948|   -7.946651|    0.824007|    0.012006|
|         707|   -5.213815|   -7.948028|    0.824007|    0.012005|
|         708|   -5.294119|   -7.949006|    0.824006|    0.012005|
|         709|   -5.375826|   -7.949647|    0.824005|    0.012004|
|         710|   -5.443727|   -7.950010|    0.824005|    0.012003|
|         711|   -5.491639|   -7.950138|    0.824004|    0.012003|
|         712|   -5.522440|   -7.950080|    0.824004|    0.012002|
|         713|   -5.540316|   -7.949905|    0.824003|    0.012001|
|         714|   -5.548831|   -7.949679|    0.824003|    0.012001|
|         715|   -5.552651|   -7.949458|    0.824002|    0.012000|
|         716|   -5.556856|   -7.949276|    0.824002|    0.012000|
|         717|   -5.564811|   -7.949156|    0.824002|    0.011999|
|         718|   -5.577190|   -7.949117|    0.824002|    0.011998|
|         719|   -5.592463|   -7.949181|    0.824002|    0.011998|
|         720|   -5.608203|   -7.949367|    0.824002|    0.011997|
|         721|   -5.622561|   -7.949691|    0.824001|    0.011996|
|         722|   -5.635102|   -7.950158|    0.824001|    0.011996|
|         723|   -5.646563|   -7.950774|    0.824001|    0.011995|
|         724|   -5.657946|   -7.951540|    0.824002|    0.011995|
|         725|   -5.669790|   -7.952455|    0.824002|    0.011994|
|         726|   -5.681989|   -7.953515|    0.824002|    0.011993|
|         727|   -5.694016|   -7.954720|    0.824002|    0.011993|
|         728|   -5.705247|   -7.956068|    0.824002|    0.011992|
|         729|   -5.715183|   -7.957560|    0.824003|    0.011992|
|         730|   -5.723548|   -7.959198|    0.824003|    0.011992|
|         731|   -5.730321|   -7.960988|    0.824003|    0.011991|
|         732|   -5.735741|   -7.962937|    0.824004|    0.011991|
|         733|   -5.740278|   -7.965052|    0.824004|    0.011990|
|         734|   -5.744536|   -7.967339|    0.824004|    0.011990|
|         735|   -5.749119|   -7.969805|    0.824005|    0.011990|
|         736|   -5.754493|   -7.972455|    0.824005|    0.011989|
|         737|   -5.760907|   -7.975293|    0.824006|    0.011989|
|         738|   -5.768360|   -7.978323|    0.824006|    0.011989|
|         739|   -5.776613|   -7.981546|    0.824007|    0.011989|
|         740|   -5.785236|   -7.984961|    0.824008|    0.011988|
|         741|   -5.793682|   -7.988569|    0.824008|    0.011988|
|         742|   -5.801398|   -7.992364|    0.824009|    0.011988|
|         743|   -5.807949|   -7.996344|    0.824009|    0.011988|
|         744|   -5.813123|   -8.000498|    0.824010|    0.011988|
|         745|   -5.816969|   -8.004819|    0.824011|    0.011988|
|         746|   -5.819760|   -8.009293|    0.824011|    0.011988|
|         747|   -5.821889|   -8.013907|    0.824012|    0.011988|
|         748|   -5.823746|   -8.018644|    0.824012|    0.011988|
|         749|   -5.825624|   -8.023485|    0.824013|    0.011988|
|         750|   -5.827664|   -8.028411|    0.824013|    0.011988|
|         751|   -5.829854|   -8.033401|    0.824014|    0.011988|
|         752|   -5.832065|   -8.038432|    0.824014|    0.011989|
|         753|   -5.834103|   -8.043481|    0.824015|    0.011989|
|         754|   -5.835769|   -8.048524|    0.824015|    0.011989|
|         755|   -5.836907|   -8.053543|    0.824015|    0.011989|
|         756|   -5.837433|   -8.058518|    0.824016|    0.011990|
|         757|   -5.837344|   -8.063433|    0.824016|    0.011990|
|         758|   -5.836700|   -8.068276|    0.824016|    0.011990|
|         759|   -5.835609|   -8.073048|    0.824016|    0.011990|
|         760|   -5.834190|   -8.077750|    0.824016|    0.011991|
|         761|   -5.832554|   -8.082384|    0.824016|    0.011991|
|         762|   -5.830795|   -8.086959|    0.824016|    0.011992|
|         763|   -5.828978|   -8.091492|    0.824016|    0.011992|
|         764|   -5.827149|   -8.096003|    0.824016|    0.011992|
|         765|   -5.825336|   -8.100516|    0.824016|    0.011993|
|         766|   -5.823557|   -8.105055|    0.824016|    0.011993|
|         767|   -5.821827|   -8.109648|    0.824016|    0.011994|
|         768|   -5.820161|   -8.114318|    0.824015|    0.011994|
|         769|   -5.818573|   -8.119087|    0.824015|    0.011995|
|         770|   -5.817078|   -8.123969|    0.824015|    0.011995|
|         771|   -5.815691|   -8.128975|    0.824014|    0.011996|
|         772|   -5.814422|   -8.134106|    0.824014|    0.011996|
|         773|   -5.813281|   -8.139354|    0.824014|    0.011997|
|         774|   -5.812269|   -8.144705|    0.824013|    0.011997|
|         775|   -5.811389|   -8.150131|    0.824013|    0.011998|
|         776|   -5.810636|   -8.155600|    0.824012|    0.011998|
|         777|   -5.810004|   -8.161069|    0.824012|    0.011999|
|         778|   -5.809485|   -8.166489|    0.824011|    0.011999|
|         779|   -5.809069|   -8.171810|    0.824011|    0.012000|
|         780|   -5.808744|   -8.176977|    0.824010|    0.012000|
|         781|   -5.808499|   -8.181936|    0.824010|    0.012001|
|         782|   -5.808320|   -8.186639|    0.824009|    0.012001|
|         783|   -5.808195|   -8.191050|    0.824009|    0.012002|
|         784|   -5.808108|   -8.195138|    0.824009|    0.012002|
|         785|   -5.808047|   -8.198886|    0.824008|    0.012003|
|         786|   -5.807998|   -8.202291|    0.824008|    0.012003|
|         787|   -5.807946|   -8.205359|    0.824007|    0.012003|
|         788|   -5.807880|   -8.208111|    0.824007|    0.012004|
|         789|   -5.807785|   -8.210578|    0.824007|    0.012004|
|         790|   -5.807649|   -8.212801|    0.824006|    0.012004|
|         791|   -5.807462|   -8.214827|    0.824006|    0.012005|
|         792|   -5.807211|   -8.216707|    0.824006|    0.012005|
|         793|   -5.806885|   -8.218494|    0.824005|    0.012005|
|         794|   -5.806475|   -8.220239|    0.824005|    0.012006|
|         795|   -5.805970|   -8.221991|    0.824005|    0.012006|
|         796|   -5.805361|   -8.223795|    0.824005|    0.012006|
|         797|   -5.804639|   -8.225687|    0.824004|    0.012006|
|         798|   -5.803796|   -8.227699|    0.824004|    0.012007|
|         799|   -5.802823|   -8.229852|    0.824004|    0.012007|
|         800|   -5.801716|   -8.232162|    0.824004|    0.012007|
|         801|   -5.800468|   -8.234633|    0.824003|    0.012007|
+-----------------------------------------------------------------------+
|Fixed CL Mode                           |Value                         |
+-----------------------------------------------------------------------+
|Current CL                              |0.824003                      |
|Target CL                               |0.824                         |
|Previous AOA                            |2.77596                       |
|Changed AoA by                          |-1.82029e-05                  |
+-----------------------------------------------------------------------+
+----------------------------------------------------------------+
|  Inner_Iter|    rms[Rho]|     rms[nu]|          CL|          CD|
+----------------------------------------------------------------+
|         802|   -4.929883|   -8.232185|    0.824003|    0.012007|
|         803|   -5.299634|   -8.237751|    0.824003|    0.012007|
|         804|   -5.508752|   -8.241513|    0.824003|    0.012007|
|         805|   -5.563701|   -8.245003|    0.824002|    0.012007|
|         806|   -5.594915|   -8.248423|    0.824002|    0.012007|
|         807|   -5.631457|   -8.251793|    0.824002|    0.012007|
|         808|   -5.669646|   -8.255107|    0.824002|    0.012007|
|         809|   -5.700634|   -8.258354|    0.824002|    0.012007|
|         810|   -5.720210|   -8.261526|    0.824001|    0.012007|
|         811|   -5.730459|   -8.264612|    0.824001|    0.012007|
|         812|   -5.735111|   -8.267603|    0.824001|    0.012006|
|         813|   -5.736525|   -8.270496|    0.824001|    0.012006|
|         814|   -5.735996|   -8.273293|    0.824000|    0.012006|
|         815|   -5.734614|   -8.275992|    0.824000|    0.012006|
|         816|   -5.733372|   -8.278577|    0.824000|    0.012006|
|         817|   -5.732866|   -8.281045|    0.824000|    0.012005|
|         818|   -5.733147|   -8.283393|    0.823999|    0.012005|
|         819|   -5.733882|   -8.285617|    0.823999|    0.012005|
|         820|   -5.734671|   -8.287719|    0.823999|    0.012004|
|         821|   -5.735299|   -8.289705|    0.823999|    0.012004|
|         822|   -5.735792|   -8.291578|    0.823999|    0.012004|
|         823|   -5.736311|   -8.293339|    0.823998|    0.012003|
|         824|   -5.737002|   -8.294990|    0.823998|    0.012003|
|         825|   -5.737920|   -8.296536|    0.823998|    0.012003|
|         826|   -5.739025|   -8.297981|    0.823998|    0.012002|
|         827|   -5.740240|   -8.299336|    0.823998|    0.012002|
|         828|   -5.741494|   -8.300610|    0.823998|    0.012002|
|         829|   -5.742751|   -8.301817|    0.823997|    0.012001|
|         830|   -5.744013|   -8.302972|    0.823997|    0.012001|
|         831|   -5.745312|   -8.304092|    0.823997|    0.012000|
|         832|   -5.746708|   -8.305193|    0.823997|    0.012000|
|         833|   -5.748270|   -8.306291|    0.823997|    0.012000|
|         834|   -5.750070|   -8.307404|    0.823997|    0.011999|
|         835|   -5.752166|   -8.308546|    0.823997|    0.011999|
|         836|   -5.754588|   -8.309734|    0.823997|    0.011998|
|         837|   -5.757335|   -8.310982|    0.823997|    0.011998|
|         838|   -5.760371|   -8.312306|    0.823997|    0.011998|
|         839|   -5.763635|   -8.313723|    0.823997|    0.011997|
|         840|   -5.767048|   -8.315247|    0.823997|    0.011997|
|         841|   -5.770525|   -8.316895|    0.823997|    0.011997|
|         842|   -5.773983|   -8.318682|    0.823997|    0.011996|
|         843|   -5.777354|   -8.320621|    0.823997|    0.011996|
|         844|   -5.780586|   -8.322728|    0.823997|    0.011996|
|         845|   -5.783649|   -8.325019|    0.823997|    0.011995|
|         846|   -5.786526|   -8.327505|    0.823997|    0.011995|
|         847|   -5.789210|   -8.330193|    0.823997|    0.011995|
|         848|   -5.791691|   -8.333089|    0.823997|    0.011995|
|         849|   -5.793956|   -8.336190|    0.823997|    0.011994|
|         850|   -5.795981|   -8.339493|    0.823998|    0.011994|
|         851|   -5.797734|   -8.342987|    0.823998|    0.011994|
|         852|   -5.799178|   -8.346655|    0.823998|    0.011994|
|         853|   -5.800278|   -8.350476|    0.823998|    0.011993|
|         854|   -5.801004|   -8.354422|    0.823998|    0.011993|
|         855|   -5.801336|   -8.358461|    0.823999|    0.011993|
|         856|   -5.801267|   -8.362552|    0.823999|    0.011993|
|         857|   -5.800803|   -8.366651|    0.823999|    0.011993|
|         858|   -5.799962|   -8.370709|    0.824000|    0.011993|
|         859|   -5.798771|   -8.374672|    0.824000|    0.011993|
|         860|   -5.797263|   -8.378483|    0.824000|    0.011993|
|         861|   -5.795477|   -8.382086|    0.824001|    0.011993|
|         862|   -5.793451|   -8.385426|    0.824001|    0.011993|
|         863|   -5.791227|   -8.388448|    0.824001|    0.011993|
|         864|   -5.788847|   -8.391106|    0.824002|    0.011993|
|         865|   -5.786351|   -8.393362|    0.824002|    0.011993|
|         866|   -5.783780|   -8.395190|    0.824002|    0.011993|
|         867|   -5.781174|   -8.396575|    0.824003|    0.011993|
|         868|   -5.778574|   -8.397513|    0.824003|    0.011993|
|         869|   -5.776015|   -8.398013|    0.824003|    0.011993|
|         870|   -5.773535|   -8.398093|    0.824004|    0.011993|
|         871|   -5.771168|   -8.397786|    0.824004|    0.011993|
|         872|   -5.768945|   -8.397134|    0.824004|    0.011994|
|         873|   -5.766895|   -8.396187|    0.824005|    0.011994|
|         874|   -5.765045|   -8.395003|    0.824005|    0.011994|
|         875|   -5.763418|   -8.393640|    0.824005|    0.011994|
|         876|   -5.762036|   -8.392158|    0.824005|    0.011994|
|         877|   -5.760916|   -8.390616|    0.824006|    0.011995|
|         878|   -5.760074|   -8.389069|    0.824006|    0.011995|
|         879|   -5.759525|   -8.387567|    0.824006|    0.011995|
|         880|   -5.759279|   -8.386154|    0.824006|    0.011995|
|         881|   -5.759345|   -8.384866|    0.824006|    0.011995|
|         882|   -5.759729|   -8.383734|    0.824007|    0.011996|
|         883|   -5.760436|   -8.382779|    0.824007|    0.011996|
|         884|   -5.761468|   -8.382016|    0.824007|    0.011996|
|         885|   -5.762825|   -8.381453|    0.824007|    0.011997|
|         886|   -5.764505|   -8.381090|    0.824007|    0.011997|
|         887|   -5.766504|   -8.380926|    0.824007|    0.011997|
|         888|   -5.768815|   -8.380950|    0.824007|    0.011997|
|         889|   -5.771429|   -8.381151|    0.824007|    0.011998|
|         890|   -5.774336|   -8.381516|    0.824007|    0.011998|
|         891|   -5.777523|   -8.382027|    0.824007|    0.011998|
|         892|   -5.780973|   -8.382671|    0.824007|    0.011998|
|         893|   -5.784668|   -8.383432|    0.824007|    0.011999|
|         894|   -5.788587|   -8.384301|    0.824007|    0.011999|
|         895|   -5.792707|   -8.385261|    0.824007|    0.011999|
|         896|   -5.797001|   -8.386305|    0.824007|    0.012000|
|         897|   -5.801440|   -8.387426|    0.824007|    0.012000|
|         898|   -5.805992|   -8.388627|    0.824007|    0.012000|
|         899|   -5.810622|   -8.389908|    0.824007|    0.012000|
|         900|   -5.815294|   -8.391273|    0.824007|    0.012000|
|         901|   -5.819967|   -8.392727|    0.824007|    0.012000|
+-----------------------------------------------------------------------+
|Fixed CL Mode                           |Value                         |
+-----------------------------------------------------------------------+
|Current CL                              |0.824007                      |
|Target CL                               |0.824                         |
|Previous AOA                            |2.77594                       |
[...]
|        5298|   -6.043243|   -7.937186|    0.824238|    0.012004|
|        5299|   -6.049949|   -7.940820|    0.824238|    0.012003|
|        5300|   -6.056246|   -7.944471|    0.824238|    0.012003|
|        5301|   -6.062098|   -7.948152|    0.824238|    0.012003|
|        5302|   -6.067480|   -7.951878|    0.824238|    0.012003|
|        5303|   -6.072379|   -7.955660|    0.824238|    0.012003|
|        5304|   -6.076796|   -7.959505|    0.824238|    0.012003|
|        5305|   -6.080740|   -7.963418|    0.824238|    0.012003|
|        5306|   -6.084237|   -7.967400|    0.824239|    0.012003|
|        5307|   -6.087321|   -7.971454|    0.824239|    0.012003|
|        5308|   -6.090033|   -7.975580|    0.824239|    0.012003|
|        5309|   -6.092424|   -7.979782|    0.824239|    0.012003|
|        5310|   -6.094549|   -7.984061|    0.824239|    0.012003|
|        5311|   -6.096463|   -7.988421|    0.824239|    0.012003|
|        5312|   -6.098227|   -7.992867|    0.824239|    0.012003|
|        5313|   -6.099896|   -7.997403|    0.824239|    0.012003|
|        5314|   -6.101527|   -8.002035|    0.824239|    0.012003|
|        5315|   -6.103174|   -8.006769|    0.824239|    0.012003|
|        5316|   -6.104884|   -8.011610|    0.824240|    0.012003|
|        5317|   -6.106700|   -8.016563|    0.824240|    0.012003|
|        5318|   -6.108660|   -8.021633|    0.824240|    0.012003|
|        5319|   -6.110795|   -8.026827|    0.824240|    0.012003|
|        5320|   -6.113130|   -8.032148|    0.824240|    0.012003|
|        5321|   -6.115682|   -8.037602|    0.824240|    0.012003|
|        5322|   -6.118462|   -8.043193|    0.824240|    0.012003|
|        5323|   -6.121476|   -8.048923|    0.824241|    0.012003|
|        5324|   -6.124720|   -8.054793|    0.824241|    0.012004|
|        5325|   -6.128187|   -8.060805|    0.824241|    0.012004|
|        5326|   -6.131861|   -8.066955|    0.824241|    0.012004|
|        5327|   -6.135721|   -8.073241|    0.824241|    0.012004|
|        5328|   -6.139741|   -8.079657|    0.824241|    0.012004|
|        5329|   -6.143890|   -8.086197|    0.824241|    0.012004|
|        5330|   -6.148131|   -8.092851|    0.824242|    0.012004|
|        5331|   -6.152425|   -8.099611|    0.824242|    0.012004|
|        5332|   -6.156730|   -8.106463|    0.824242|    0.012004|
|        5333|   -6.161004|   -8.113398|    0.824242|    0.012004|
|        5334|   -6.165202|   -8.120400|    0.824242|    0.012004|
|        5335|   -6.169283|   -8.127458|    0.824242|    0.012004|
|        5336|   -6.173207|   -8.134558|    0.824242|    0.012005|
|        5337|   -6.176939|   -8.141687|    0.824243|    0.012005|
|        5338|   -6.180448|   -8.148834|    0.824243|    0.012005|
|        5339|   -6.183711|   -8.155988|    0.824243|    0.012005|
|        5340|   -6.186713|   -8.163139|    0.824243|    0.012005|
|        5341|   -6.189445|   -8.170279|    0.824243|    0.012005|
|        5342|   -6.191908|   -8.177399|    0.824243|    0.012005|
|        5343|   -6.194112|   -8.184495|    0.824243|    0.012005|
|        5344|   -6.196072|   -8.191561|    0.824243|    0.012005|
|        5345|   -6.197815|   -8.198594|    0.824243|    0.012005|
|        5346|   -6.199370|   -8.205592|    0.824244|    0.012005|
|        5347|   -6.200774|   -8.212554|    0.824244|    0.012005|
|        5348|   -6.202068|   -8.219481|    0.824244|    0.012005|
|        5349|   -6.203294|   -8.226374|    0.824244|    0.012005|
|        5350|   -6.204497|   -8.233235|    0.824244|    0.012006|
|        5351|   -6.205721|   -8.240066|    0.824244|    0.012006|
|        5352|   -6.207009|   -8.246870|    0.824244|    0.012006|
|        5353|   -6.208404|   -8.253651|    0.824244|    0.012006|
|        5354|   -6.209945|   -8.260411|    0.824244|    0.012006|
|        5355|   -6.211667|   -8.267153|    0.824244|    0.012006|
|        5356|   -6.213603|   -8.273880|    0.824244|    0.012006|
|        5357|   -6.215781|   -8.280589|    0.824244|    0.012006|
|        5358|   -6.218223|   -8.287282|    0.824244|    0.012006|
|        5359|   -6.220949|   -8.293963|    0.824244|    0.012006|
|        5360|   -6.223972|   -8.300633|    0.824244|    0.012006|
|        5361|   -6.227301|   -8.307293|    0.824244|    0.012006|
|        5362|   -6.230940|   -8.313945|    0.824244|    0.012006|
|        5363|   -6.234889|   -8.320589|    0.824244|    0.012006|
|        5364|   -6.239141|   -8.327226|    0.824244|    0.012006|
|        5365|   -6.243685|   -8.333855|    0.824244|    0.012006|
|        5366|   -6.248506|   -8.340475|    0.824244|    0.012006|
|        5367|   -6.253582|   -8.347086|    0.824244|    0.012006|
|        5368|   -6.258889|   -8.353686|    0.824244|    0.012006|
|        5369|   -6.264395|   -8.360274|    0.824244|    0.012006|
|        5370|   -6.270068|   -8.366849|    0.824244|    0.012006|
|        5371|   -6.275867|   -8.373411|    0.824244|    0.012006|
|        5372|   -6.281752|   -8.379958|    0.824244|    0.012006|
|        5373|   -6.287677|   -8.386490|    0.824244|    0.012006|
|        5374|   -6.293597|   -8.393007|    0.824244|    0.012005|
|        5375|   -6.299461|   -8.399508|    0.824244|    0.012005|
|        5376|   -6.305223|   -8.405993|    0.824244|    0.012005|
|        5377|   -6.310833|   -8.412464|    0.824244|    0.012005|
|        5378|   -6.316245|   -8.418922|    0.824244|    0.012005|
|        5379|   -6.321417|   -8.425367|    0.824244|    0.012005|
|        5380|   -6.326309|   -8.431808|    0.824244|    0.012005|
|        5381|   -6.330887|   -8.438256|    0.824244|    0.012005|
|        5382|   -6.335125|   -8.444707|    0.824244|    0.012005|
|        5383|   -6.339000|   -8.451160|    0.824243|    0.012005|
|        5384|   -6.342500|   -8.457617|    0.824243|    0.012005|
|        5385|   -6.345618|   -8.464078|    0.824244|    0.012005|
|        5386|   -6.348355|   -8.470546|    0.824244|    0.012005|
|        5387|   -6.350718|   -8.477022|    0.824244|    0.012004|
|        5388|   -6.352721|   -8.483503|    0.824244|    0.012004|
|        5389|   -6.354382|   -8.489989|    0.824244|    0.012004|
|        5390|   -6.355723|   -8.496474|    0.824244|    0.012004|
|        5391|   -6.356770|   -8.502950|    0.824244|    0.012004|
|        5392|   -6.357549|   -8.509409|    0.824244|    0.012004|
|        5393|   -6.358088|   -8.515838|    0.824244|    0.012004|
|        5394|   -6.358414|   -8.522221|    0.824244|    0.012004|
|        5395|   -6.358554|   -8.528536|    0.824244|    0.012004|
|        5396|   -6.358532|   -8.534763|    0.824244|    0.012004|
|        5397|   -6.358371|   -8.540882|    0.824244|    0.012003|
|        5398|   -6.358090|   -8.546869|    0.824244|    0.012003|
|        5399|   -6.357708|   -8.552696|    0.824244|    0.012003|
|        5400|   -6.357240|   -8.558335|    0.824245|    0.012003|
|        5401|   -6.356697|   -8.563764|    0.824245|    0.012003|
|        5402|   -6.356091|   -8.568963|    0.824245|    0.012003|
|        5403|   -6.355429|   -8.573911|    0.824245|    0.012003|
|        5404|   -6.354718|   -8.578591|    0.824245|    0.012003|
|        5405|   -6.353963|   -8.582990|    0.824245|    0.012003|
|        5406|   -6.353167|   -8.587097|    0.824245|    0.012003|
|        5407|   -6.352334|   -8.590912|    0.824245|    0.012002|
|        5408|   -6.351466|   -8.594431|    0.824246|    0.012002|
|        5409|   -6.350565|   -8.597658|    0.824246|    0.012002|
|        5410|   -6.349633|   -8.600601|    0.824246|    0.012002|
|        5411|   -6.348673|   -8.603273|    0.824246|    0.012002|
|        5412|   -6.347686|   -8.605689|    0.824246|    0.012002|
|        5413|   -6.346677|   -8.607869|    0.824246|    0.012002|
|        5414|   -6.345647|   -8.609836|    0.824246|    0.012002|
|        5415|   -6.344602|   -8.611612|    0.824247|    0.012002|
|        5416|   -6.343546|   -8.613223|    0.824247|    0.012002|
|        5417|   -6.342484|   -8.614691|    0.824247|    0.012002|
|        5418|   -6.341422|   -8.616040|    0.824247|    0.012002|
|        5419|   -6.340367|   -8.617295|    0.824247|    0.012002|
|        5420|   -6.339327|   -8.618497|    0.824247|    0.012002|
|        5421|   -6.338310|   -8.619656|    0.824247|    0.012001|
|        5422|   -6.337324|   -8.620783|    0.824247|    0.012001|
|        5423|   -6.336380|   -8.621885|    0.824247|    0.012001|
|        5424|   -6.335489|   -8.622972|    0.824248|    0.012001|
|        5425|   -6.334661|   -8.624048|    0.824248|    0.012001|
|        5426|   -6.333908|   -8.625119|    0.824248|    0.012001|
|        5427|   -6.333245|   -8.626187|    0.824248|    0.012001|
|        5428|   -6.332684|   -8.627254|    0.824248|    0.012001|
|        5429|   -6.332238|   -8.628323|    0.824248|    0.012001|
|        5430|   -6.331923|   -8.629395|    0.824248|    0.012001|
|        5431|   -6.331752|   -8.630471|    0.824248|    0.012001|
|        5432|   -6.331742|   -8.631554|    0.824248|    0.012001|
|        5433|   -6.331906|   -8.632648|    0.824248|    0.012001|
|        5434|   -6.332260|   -8.633770|    0.824248|    0.012001|
|        5435|   -6.332816|   -8.634924|    0.824248|    0.012001|
|        5436|   -6.333590|   -8.636115|    0.824248|    0.012001|
|        5437|   -6.334594|   -8.637349|    0.824248|    0.012001|
|        5438|   -6.335840|   -8.638633|    0.824248|    0.012001|
|        5439|   -6.337338|   -8.639971|    0.824248|    0.012001|
|        5440|   -6.339098|   -8.641370|    0.824248|    0.012001|
|        5441|   -6.341127|   -8.642838|    0.824248|    0.012002|
|        5442|   -6.343431|   -8.644383|    0.824248|    0.012002|
|        5443|   -6.346012|   -8.646011|    0.824248|    0.012002|
|        5444|   -6.348871|   -8.647731|    0.824248|    0.012002|
|        5445|   -6.352007|   -8.649548|    0.824248|    0.012002|
|        5446|   -6.355415|   -8.651469|    0.824248|    0.012002|
|        5447|   -6.359086|   -8.653498|    0.824248|    0.012002|
|        5448|   -6.363011|   -8.655640|    0.824248|    0.012002|
|        5449|   -6.367173|   -8.657896|    0.824248|    0.012002|
|        5450|   -6.371557|   -8.660269|    0.824248|    0.012002|
|        5451|   -6.376139|   -8.662759|    0.824248|    0.012002|
|        5452|   -6.380895|   -8.665364|    0.824248|    0.012002|
|        5453|   -6.385795|   -8.668081|    0.824248|    0.012002|
|        5454|   -6.390808|   -8.670908|    0.824248|    0.012002|
|        5455|   -6.395897|   -8.673838|    0.824248|    0.012002|
|        5456|   -6.401024|   -8.676866|    0.824248|    0.012003|
|        5457|   -6.406146|   -8.679984|    0.824248|    0.012003|
|        5458|   -6.411221|   -8.683185|    0.824247|    0.012003|
|        5459|   -6.416202|   -8.686460|    0.824247|    0.012003|
|        5460|   -6.421044|   -8.689798|    0.824247|    0.012003|
|        5461|   -6.425701|   -8.693191|    0.824247|    0.012003|
|        5462|   -6.430129|   -8.696628|    0.824247|    0.012003|
|        5463|   -6.434285|   -8.700097|    0.824247|    0.012003|
|        5464|   -6.438129|   -8.703589|    0.824247|    0.012003|
|        5465|   -6.441628|   -8.707093|    0.824247|    0.012003|
|        5466|   -6.444753|   -8.710597|    0.824247|    0.012003|
|        5467|   -6.447480|   -8.714092|    0.824246|    0.012003|
|        5468|   -6.449793|   -8.717567|    0.824246|    0.012003|
|        5469|   -6.451685|   -8.721011|    0.824246|    0.012004|
|        5470|   -6.453154|   -8.724413|    0.824246|    0.012004|
|        5471|   -6.454207|   -8.727765|    0.824246|    0.012004|
|        5472|   -6.454858|   -8.731055|    0.824246|    0.012004|
|        5473|   -6.455128|   -8.734274|    0.824245|    0.012004|
|        5474|   -6.455042|   -8.737412|    0.824245|    0.012004|
|        5475|   -6.454632|   -8.740460|    0.824245|    0.012004|
|        5476|   -6.453932|   -8.743409|    0.824245|    0.012004|
|        5477|   -6.452982|   -8.746250|    0.824245|    0.012004|
|        5478|   -6.451820|   -8.748973|    0.824245|    0.012004|
|        5479|   -6.450487|   -8.751569|    0.824244|    0.012004|
|        5480|   -6.449024|   -8.754031|    0.824244|    0.012004|
|        5481|   -6.447471|   -8.756353|    0.824244|    0.012004|
|        5482|   -6.445867|   -8.758529|    0.824244|    0.012004|
|        5483|   -6.444248|   -8.760554|    0.824244|    0.012004|
|        5484|   -6.442648|   -8.762425|    0.824243|    0.012004|
|        5485|   -6.441100|   -8.764140|    0.824243|    0.012004|
|        5486|   -6.439632|   -8.765697|    0.824243|    0.012004|
|        5487|   -6.438272|   -8.767098|    0.824243|    0.012004|
|        5488|   -6.437042|   -8.768344|    0.824243|    0.012004|
|        5489|   -6.435963|   -8.769441|    0.824243|    0.012004|
|        5490|   -6.435054|   -8.770394|    0.824242|    0.012004|
|        5491|   -6.434329|   -8.771211|    0.824242|    0.012004|
|        5492|   -6.433802|   -8.771900|    0.824242|    0.012004|
|        5493|   -6.433482|   -8.772473|    0.824242|    0.012004|
|        5494|   -6.433379|   -8.772942|    0.824242|    0.012004|
|        5495|   -6.433499|   -8.773319|    0.824242|    0.012004|
|        5496|   -6.433845|   -8.773619|    0.824242|    0.012004|
|        5497|   -6.434422|   -8.773855|    0.824241|    0.012004|
|        5498|   -6.435229|   -8.774042|    0.824241|    0.012004|
|        5499|   -6.436267|   -8.774196|    0.824241|    0.011990|
+-----------------------------------------------------------------------+
|Fixed CL Mode (Finite Difference)       |Value                         |
+-----------------------------------------------------------------------+
|Delta CL / Delta AoA                    |0.241086                      |
|Delta CD / Delta CL                     |0.0182481                     |
|Delta CMz / Delta CL                    |0.00241664                    |
+-----------------------------------------------------------------------+
Writing Flow Meta-Data file: flow.meta

----------------------------- Solver Exit -------------------------------

Maximum number of iterations reached (ITER = 5500) before convergence.
+-----------------------------------------------------------------------+
|      Convergence Field     |     Value    |   Criterion  |  Converged |
+-----------------------------------------------------------------------+
|                    rms[Rho]|      -6.43627|         < -12|          No|
+-----------------------------------------------------------------------+
-------------------------------------------------------------------------

--------------------------- Finalizing Solver ---------------------------
Deleted CNumerics container.
Deleted CIntegration container.
Deleted CSolver container.
Deleted CIteration container.
Deleted CInterface container.
Deleted CGeometry container.
Deleted CFreeFormDefBox class.
Deleted CSurfaceMovement class.
Deleted CVolumetricMovement class.
Deleted CConfig container.
Deleted nInst container.
Deleted COutput class.
-------------------------------------------------------------------------

------------------------- Exit Success (SU2_CFD) ------------------------


-------------------------------------------------------------------------
|    ___ _   _ ___                                                      |
|   / __| | | |_  )   Release 8.0.0 "Harrier"                           |
|   \__ \ |_| |/ /                                                      |
|   |___/\___//___|   Suite (Solution Exporting Code)                   |
|                                                                       |
-------------------------------------------------------------------------
| SU2 Project Website: https://su2code.github.io                        |
|                                                                       |
| The SU2 Project is maintained by the SU2 Foundation                   |
| (http://su2foundation.org)                                            |
-------------------------------------------------------------------------
| Copyright 2012-2023, SU2 Contributors                                 |
|                                                                       |
| SU2 is free software; you can redistribute it and/or                  |
| modify it under the terms of the GNU Lesser General Public            |
| License as published by the Free Software Foundation; either          |
| version 2.1 of the License, or (at your option) any later version.    |
|                                                                       |
| SU2 is distributed in the hope that it will be useful,                |
| but WITHOUT ANY WARRANTY; without even the implied warranty of        |
| MERCHANTABILITY or FITNESS FOR A PARTICULAR PURPOSE. See the GNU      |
| Lesser General Public License for more details.                       |
|                                                                       |
| You should have received a copy of the GNU Lesser General Public      |
| License along with SU2. If not, see <http://www.gnu.org/licenses/>.   |
-------------------------------------------------------------------------

----------------- Physical Case Definition ( Zone 0 ) -------------------
Input mesh file name: mesh_RAE2822_turb_deform.su2

-------------------- Output Information ( Zone 0 ) ----------------------
The tabular file format is CSV (.csv).
Flow variables file name: flow.

------------- Config File Boundary Information ( Zone 0 ) ---------------
+-----------------------------------------------------------------------+
|                        Marker Type|                        Marker Name|
+-----------------------------------------------------------------------+
|                          Far-field|                           FARFIELD|
+-----------------------------------------------------------------------+
|                     Heat flux wall|                            AIRFOIL|
+-----------------------------------------------------------------------+
Two dimensional problem.
13937 grid points before partitioning.
22842 volume elements before partitioning.
2 surface markers.
192 boundary elements in index 0 (Marker = AIRFOIL).
40 boundary elements in index 1 (Marker = FARFIELD).
Executing the partitioning functions.
Building the graph adjacency structure.
Calling ParMETIS... graph partitioning complete (831 edge cuts).
Distributing ParMETIS coloring.
Rebalancing vertices.
Rebalancing volume element connectivity.
Rebalancing markers and surface elements.
14875 vertices including ghost points. 
23674 interior elements including halo cells. 
18780 triangles.
4894 quadrilaterals.
Establishing MPI communication patterns.
Identify vertices.
Storing a mapping from global to local point index.

------------------------- Solution Postprocessing -----------------------
Reading and storing the solution from restart_flow.
Volume output fields: COORDINATES, SOLUTION
  Info: Ignoring the following screen output fields:
  RMS_DENSITY, RMS_NU_TILDE, LIFT, DRAG
Screen output fields: INNER_ITER
  Info: Ignoring the following history output groups:
  RMS_RES, AERO_COEFF
History output group(s): ITER
Warning: No (valid) fields chosen for convergence monitoring. Convergence monitoring inactive.
Warning: No (valid) fields chosen for time convergence monitoring. Time convergence monitoring inactive.
|Paraview                           |flow.vtu                           |
|Paraview surface                   |surface_flow.vtu                   |
|CSV file                           |surface_flow.csv                   |

------------------------- Finalize Solver -------------------------
Deleted CGeometry container.
Deleted CSolver class.
Deleted CConfig container.
Deleted COutput class.

Completed in 0.014701 seconds on 6 cores.

------------------------- Exit Success (SU2_SOL) ------------------------

