
-------------------------------------------------------------------------
|    ___ _   _ ___                                                      |
|   / __| | | |_  )   Release 8.0.0 "Harrier"                           |
|   \__ \ |_| |/ /                                                      |
|   |___/\___//___|   Suite (Computational Fluid Dynamics Code)         |
|                                                                       |
-------------------------------------------------------------------------
| SU2 Project Website: https://su2code.github.io                        |
|                                                                       |
| The SU2 Project is maintained by the SU2 Foundation                   |
| (http://su2foundation.org)                                            |
-------------------------------------------------------------------------
| Copyright 2012-2023, SU2 Contributors                                 |
|                                                                       |
| SU2 is free software; you can redistribute it and/or                  |
| modify it under the terms of the GNU Lesser General Public            |
| License as published by the Free Software Foundation; either          |
| version 2.1 of the License, or (at your option) any later version.    |
|                                                                       |
| SU2 is distributed in the hope that it will be useful,                |
| but WITHOUT ANY WARRANTY; without even the implied warranty of        |
| MERCHANTABILITY or FITNESS FOR A PARTICULAR PURPOSE. See the GNU      |
| Lesser General Public License for more details.                       |
|                                                                       |
| You should have received a copy of the GNU Lesser General Public      |
| License along with SU2. If not, see <http://www.gnu.org/licenses/>.   |
-------------------------------------------------------------------------

Parsing config file for zone 0

----------------- Physical Case Definition ( Zone 0 ) -------------------
Compressible RANS equations.
Turbulence model: Spalart-Allmaras-noft2
Hybrid RANS/LES: No Hybrid RANS/LES
Mach number: 0.734.
Angle of attack (AoA): 2.31 deg, and angle of sideslip (AoS): 0 deg.
Reynolds number: 6.5e+06. Reference length 1.
Fixed CL mode, target value: 0.824.
Reading and writing binary SU2 native restart files.
Read flow solution from: solution_flow.dat.
Dimensional simulation.
The reference area is 1 m^2.
The semi-span will be computed using the max y(3D) value.
The reference length is 1 m.
Reference origin for moment evaluation is (0.25, 0, 0).
Surface(s) where the force coefficients are evaluated: AIRFOIL.

Surface(s) plotted in the output file: AIRFOIL.
Surface(s) affected by the design variables: AIRFOIL.
Input mesh file name: mesh_RAE2822_turb_deform.su2

--------------- Space Numerical Integration ( Zone 0 ) ------------------
Jameson-Schmidt-Turkel scheme (2nd order in space) for the flow inviscid terms.
JST viscous coefficients (2nd & 4th): 0.5, 0.02.
The method includes a grid stretching correction (p = 0.3).
Scalar upwind solver for the turbulence model.
First order integration in space.
Average of gradients with correction (viscous flow terms).
Average of gradients with correction (viscous turbulence terms).
Gradient for viscous and source terms: inverse-distance weighted Least-Squares.

--------------- Time Numerical Integration  ( Zone 0 ) ------------------
Local time stepping (steady state simulation).
Euler implicit method for the flow equations.
FGMRES is used for solving the linear system.
Using a ILU(0) preconditioning.
Convergence criteria of the linear solver: 1e-06.
Max number of linear iterations: 10.
No CFL adaptation.
Courant-Friedrichs-Lewy number:       10
Euler implicit time integration for the turbulence model.

------------------ Convergence Criteria  ( Zone 0 ) ---------------------
Maximum number of solver subiterations: 5500.
Begin convergence monitoring at iteration 10.
Residual minimum value: 1e-12.
Cauchy series min. value: 1e-06.
Number of Cauchy elements: 100.
Begin windowed time average at iteration 0.

-------------------- Output Information ( Zone 0 ) ----------------------
File writing frequency: 
+------------------------------------+
|                     File| Frequency|
+------------------------------------+
|                  RESTART|     10000|
|                 PARAVIEW|     10000|
|         SURFACE_PARAVIEW|     10000|
|              SURFACE_CSV|     10000|
+------------------------------------+
Writing the convergence history file every 1 inner iterations.
Writing the screen convergence history every 1 inner iterations.
The tabular file format is CSV (.csv).
Convergence history file name: history_direct.
Forces breakdown file name: forces_breakdown.dat.
Surface file name: surface_flow.
Volume file name: flow.
Restart file name: restart_flow.dat.

------------- Config File Boundary Information ( Zone 0 ) ---------------
+-----------------------------------------------------------------------+
|                        Marker Type|                        Marker Name|
+-----------------------------------------------------------------------+
|                          Far-field|                           FARFIELD|
+-----------------------------------------------------------------------+
|                     Heat flux wall|                            AIRFOIL|
+-----------------------------------------------------------------------+

-------------------- Output Preprocessing ( Zone 0 ) --------------------

WARNING: SURFACE_PRESSURE_DROP can only be computed for at least 2 surfaces (outlet, inlet, ...)

Screen output fields: INNER_ITER, RMS_DENSITY, RMS_NU_TILDE, LIFT, DRAG
History output group(s): ITER, RMS_RES, AERO_COEFF
Convergence field(s): RMS_DENSITY
Warning: No (valid) fields chosen for time convergence monitoring. Time convergence monitoring inactive.
Volume output fields: COORDINATES, SOLUTION, PRIMITIVE

------------------- Geometry Preprocessing ( Zone 0 ) -------------------
Two dimensional problem.
13937 grid points before partitioning.
22842 volume elements before partitioning.
2 surface markers.
192 boundary elements in index 0 (Marker = AIRFOIL).
40 boundary elements in index 1 (Marker = FARFIELD).
Executing the partitioning functions.
Building the graph adjacency structure.
Calling ParMETIS... graph partitioning complete (831 edge cuts).
Distributing ParMETIS coloring.
Rebalancing vertices.
Rebalancing volume element connectivity.
Rebalancing markers and surface elements.
14875 vertices including ghost points. 
23674 interior elements including halo cells. 
18780 triangles.
4894 quadrilaterals.
Establishing MPI communication patterns.
Setting point connectivity.
Renumbering points (Reverse Cuthill McKee Ordering).
Recomputing point connectivity.
Setting element connectivity.
Checking the numerical grid orientation.
All volume elements are correctly orientend.
All surface elements are correctly orientend.
Identifying edges and vertices.
Setting the control volume structure.
Area of the computational grid: 32209.9.
Searching for the closest normal neighbors to the surfaces.
Storing a mapping from global to local point index.
Compute the surface curvature.
Max K: 159.035. Mean K: 7.32152. Standard deviation K: 21.7514.
Checking for periodicity.
Computing mesh quality statistics for the dual control volumes.
+--------------------------------------------------------------+
|           Mesh Quality Metric|        Minimum|        Maximum|
+--------------------------------------------------------------+
|    Orthogonality Angle (deg.)|        75.2882|        89.9991|
|     CV Face Area Aspect Ratio|        1.00149|        3358.36|
|           CV Sub-Volume Ratio|        1.00061|        1210.84|
+--------------------------------------------------------------+
Finding max control volume width.
Communicating number of neighbors.
Wetted area = 2.02333 m.
Area projection in the x-plane = 0.123919 m, y-plane = 0.995873 m.
Max. coordinate in the x-direction = 1 m, y-direction = 0.063588 m.
Min. coordinate in the x-direction = 0 m, y-direction = -0.059362 m.
Computing wall distances.

-------------------- Solver Preprocessing ( Zone 0 ) --------------------
WARNING: AoA in the solution file (2.78081 deg.) +
         AoA offset in mesh file (0 deg.) = 2.78081 deg.
WARNING: SU2 will use the dCD/dCL provided in the direct solution file: 0.0204483.
WARNING: SU2 will use the dCMz/dCL provided in the direct solution file: 0.0150753.
Viscous flow: Computing pressure using the ideal gas law
based on the free-stream temperature and a density computed
from the Reynolds number.
Force coefficients computed using free-stream values.

-- Models:
+------------------------------------------------------------------------------+
|          Viscosity Model|        Conductivity Model|              Fluid Model|
+------------------------------------------------------------------------------+
|               SUTHERLAND|          CONSTANT_PRANDTL|             STANDARD_AIR|
+------------------------------------------------------------------------------+
-- Fluid properties:
+------------------------------------------------------------------------------+
|                  Name|    Dim. value|    Ref. value|      Unit|Non-dim. value|
+------------------------------------------------------------------------------+
|        Ref. Viscosity|     1.716e-05|             1|   N.s/m^2|     1.716e-05|
|      Sutherland Temp.|        273.15|             1|         K|        273.15|
|     Sutherland Const.|         110.4|             1|         K|         110.4|
+------------------------------------------------------------------------------+
|        Prandtl (Lam.)|             -|             -|         -|          0.71|
|       Prandtl (Turb.)|             -|             -|         -|           0.9|
+------------------------------------------------------------------------------+
|          Gas Constant|       287.058|             1|  N.m/kg.K|       287.058|
|      Spec. Heat Ratio|             -|             -|         -|           1.4|
+------------------------------------------------------------------------------+
-- Initial and free-stream conditions:
+------------------------------------------------------------------------------+
|                  Name|    Dim. value|    Ref. value|      Unit|Non-dim. value|
+------------------------------------------------------------------------------+
|       Static Pressure|         38515|             1|        Pa|         38515|
|               Density|      0.465631|             1|    kg/m^3|      0.465631|
|           Temperature|        288.15|             1|         K|        288.15|
|          Total Energy|        237984|             1|   m^2/s^2|        237984|
|            Velocity-X|       249.484|             1|       m/s|       249.484|
|            Velocity-Y|        12.118|             1|       m/s|        12.118|
|    Velocity Magnitude|       249.778|             1|       m/s|       249.778|
+------------------------------------------------------------------------------+
|             Viscosity|    1.7893e-05|             1|   N.s/m^2|    1.7893e-05|
|          Conductivity|             -|             1|   W/m^2.K|             -|
|     Turb. Kin. Energy|       233.959|             1|   m^2/s^2|       233.959|
|     Spec. Dissipation|        608834|             1|       1/s|        608834|
+------------------------------------------------------------------------------+
|           Mach Number|             -|             -|         -|         0.734|
|       Reynolds Number|             -|             -|         -|       6.5e+06|
+------------------------------------------------------------------------------+
Initialize Jacobian structure (Navier-Stokes). MG level: 0.
Initialize Jacobian structure (SA model).

------------------- Numerics Preprocessing ( Zone 0 ) -------------------

----------------- Integration Preprocessing ( Zone 0 ) ------------------

------------------- Iteration Preprocessing ( Zone 0 ) ------------------
Euler/Navier-Stokes/RANS fluid iteration.

------------------------------ Begin Solver -----------------------------

Simulation Run using the Single-zone Driver
WARNING: SU2 was not compiled for an AVX-capable architecture. Performance could be better,
         see https://su2code.github.io/docs_v7/Build-SU2-Linux-MacOS/#compiler-optimizations
+----------------------------------------------------------------+
|  Inner_Iter|    rms[Rho]|     rms[nu]|          CL|          CD|
+----------------------------------------------------------------+
|           0|   -7.197387|   -8.434950|    0.824000|    0.012158|
|           1|   -7.254660|   -8.543502|    0.824000|    0.012158|
|           2|   -7.320111|   -8.664451|    0.824000|    0.012158|
|           3|   -7.379680|   -8.790056|    0.824000|    0.012158|
|           4|   -7.430151|   -8.910504|    0.824000|    0.012158|
|           5|   -7.467047|   -9.010320|    0.824000|    0.012158|
|           6|   -7.487181|   -9.071204|    0.824000|    0.012158|
|           7|   -7.492419|   -9.086965|    0.824000|    0.012158|
|           8|   -7.487753|   -9.072925|    0.824000|    0.012158|
|           9|   -7.477458|   -9.051449|    0.824000|    0.012158|
|          10|   -7.464113|   -9.035705|    0.824000|    0.012158|
|          11|   -7.449585|   -9.030187|    0.824000|    0.012158|
|          12|   -7.435616|   -9.034656|    0.824000|    0.012158|
|          13|   -7.423624|   -9.045276|    0.824000|    0.012159|
|          14|   -7.414407|   -9.055205|    0.824000|    0.012159|
|          15|   -7.408130|   -9.055792|    0.824000|    0.012159|
|          16|   -7.404511|   -9.040883|    0.824000|    0.012159|
|          17|   -7.403021|   -9.011790|    0.824000|    0.012159|
|          18|   -7.402999|   -8.976486|    0.824000|    0.012159|
|          19|   -7.403744|   -8.943448|    0.824000|    0.012159|
|          20|   -7.404600|   -8.918460|    0.824000|    0.012159|
|          21|   -7.405090|   -8.904412|    0.824000|    0.012159|
|          22|   -7.405015|   -8.901986|    0.824000|    0.012159|
|          23|   -7.404495|   -8.910400|    0.824000|    0.012159|
|          24|   -7.403890|   -8.927738|    0.824000|    0.012159|
|          25|   -7.403652|   -8.950997|    0.824000|    0.012159|
|          26|   -7.404163|   -8.976192|    0.824000|    0.012159|
|          27|   -7.405620|   -8.998892|    0.824000|    0.012159|
|          28|   -7.407995|   -9.015453|    0.824000|    0.012159|
|          29|   -7.411063|   -9.024438|    0.824000|    0.012159|
|          30|   -7.414472|   -9.027056|    0.824000|    0.012159|
|          31|   -7.417847|   -9.026193|    0.824000|    0.012159|
|          32|   -7.420875|   -9.024931|    0.824000|    0.012159|
|          33|   -7.423367|   -9.025602|    0.824000|    0.012159|
|          34|   -7.425273|   -9.029535|    0.824000|    0.012159|
|          35|   -7.426658|   -9.037197|    0.824000|    0.012159|
|          36|   -7.427656|   -9.048424|    0.824000|    0.012159|
|          37|   -7.428424|   -9.062624|    0.824000|    0.012159|
|          38|   -7.429106|   -9.078928|    0.824000|    0.012159|
|          39|   -7.429810|   -9.096311|    0.824000|    0.012159|
|          40|   -7.430602|   -9.113697|    0.824000|    0.012159|
|          41|   -7.431514|   -9.130061|    0.824000|    0.012159|
|          42|   -7.432544|   -9.144536|    0.824000|    0.012159|
|          43|   -7.433670|   -9.156503|    0.824000|    0.012159|
|          44|   -7.434855|   -9.165652|    0.824000|    0.012159|
|          45|   -7.436050|   -9.171994|    0.824000|    0.012159|
|          46|   -7.437199|   -9.175822|    0.824000|    0.012159|
|          47|   -7.438241|   -9.177631|    0.824000|    0.012159|
|          48|   -7.439117|   -9.178019|    0.824000|    0.012159|
|          49|   -7.439774|   -9.177593|    0.824000|    0.012159|
|          50|   -7.440167|   -9.176894|    0.824000|    0.012159|
|          51|   -7.440270|   -9.176354|    0.824000|    0.012159|
|          52|   -7.440077|   -9.176272|    0.824000|    0.012159|
|          53|   -7.439602|   -9.176816|    0.823999|    0.012159|
|          54|   -7.438882|   -9.178039|    0.823999|    0.012159|
|          55|   -7.437968|   -9.179906|    0.823999|    0.012159|
|          56|   -7.436920|   -9.182325|    0.823999|    0.012159|
|          57|   -7.435797|   -9.185181|    0.823999|    0.012159|
|          58|   -7.434652|   -9.188363|    0.823999|    0.012159|
|          59|   -7.433522|   -9.191789|    0.823999|    0.012159|
|          60|   -7.432431|   -9.195414|    0.823999|    0.012159|
|          61|   -7.431385|   -9.199232|    0.823999|    0.012159|
|          62|   -7.430381|   -9.203267|    0.823999|    0.012159|
|          63|   -7.429411|   -9.207561|    0.823999|    0.012159|
|          64|   -7.428465|   -9.212154|    0.823999|    0.012159|
|          65|   -7.427541|   -9.217073|    0.823999|    0.012159|
|          66|   -7.426644|   -9.222325|    0.823999|    0.012159|
|          67|   -7.425786|   -9.227891|    0.823999|    0.012159|
|          68|   -7.424990|   -9.233729|    0.823999|    0.012159|
|          69|   -7.424278|   -9.239777|    0.823999|    0.012159|
|          70|   -7.423674|   -9.245964|    0.823999|    0.012159|
|          71|   -7.423196|   -9.252217|    0.823999|    0.012159|
|          72|   -7.422858|   -9.258463|    0.823999|    0.012159|
|          73|   -7.422663|   -9.264640|    0.823999|    0.012159|
|          74|   -7.422608|   -9.270695|    0.823999|    0.012159|
|          75|   -7.422688|   -9.276582|    0.823999|    0.012159|
|          76|   -7.422892|   -9.282266|    0.823999|    0.012159|
|          77|   -7.423211|   -9.287714|    0.823999|    0.012159|
|          78|   -7.423639|   -9.292897|    0.823999|    0.012159|
|          79|   -7.424171|   -9.297791|    0.823999|    0.012159|
|          80|   -7.424807|   -9.302372|    0.823999|    0.012159|
|          81|   -7.425544|   -9.306621|    0.823999|    0.012159|
|          82|   -7.426382|   -9.310524|    0.823999|    0.012159|
|          83|   -7.427312|   -9.314077|    0.823999|    0.012159|
|          84|   -7.428323|   -9.317281|    0.823999|    0.012159|
|          85|   -7.429394|   -9.320148|    0.823999|    0.012159|
|          86|   -7.430498|   -9.322697|    0.823999|    0.012159|
|          87|   -7.431599|   -9.324956|    0.823999|    0.012159|
|          88|   -7.432662|   -9.326955|    0.823999|    0.012159|
|          89|   -7.433649|   -9.328729|    0.823999|    0.012159|
|          90|   -7.434528|   -9.330316|    0.823999|    0.012159|
|          91|   -7.435273|   -9.331752|    0.823999|    0.012159|
|          92|   -7.435871|   -9.333074|    0.823999|    0.012159|
|          93|   -7.436321|   -9.334318|    0.823999|    0.012159|
|          94|   -7.436637|   -9.335518|    0.823999|    0.012159|
|          95|   -7.436846|   -9.336707|    0.823999|    0.012159|
|          96|   -7.436987|   -9.337919|    0.823999|    0.012159|
|          97|   -7.437108|   -9.339184|    0.823999|    0.012159|
|          98|   -7.437262|   -9.340533|    0.823999|    0.012159|
|          99|   -7.437504|   -9.341996|    0.823999|    0.012159|
|         100|   -7.437889|   -9.343601|    0.823999|    0.012159|
|         101|   -7.438466|   -9.345372|    0.823999|    0.012159|
+-----------------------------------------------------------------------+
|Fixed CL Mode                           |Value                         |
+-----------------------------------------------------------------------+
|Current CL                              |0.823999                      |
|Target CL                               |0.824                         |
|Previous AOA                            |2.78081                       |
|Changed AoA by                          |2.83202e-06                   |
+-----------------------------------------------------------------------+
+----------------------------------------------------------------+
|  Inner_Iter|    rms[Rho]|     rms[nu]|          CL|          CD|
+----------------------------------------------------------------+
|         102|   -5.741238|   -9.326533|    0.823999|    0.012159|
|         103|   -6.126418|   -9.339104|    0.823999|    0.012159|
|         104|   -6.373496|   -9.344485|    0.823999|    0.012159|
|         105|   -6.454470|   -9.348651|    0.824000|    0.012159|
|         106|   -6.508775|   -9.352563|    0.824000|    0.012159|
|         107|   -6.578428|   -9.356453|    0.824000|    0.012159|
|         108|   -6.663757|   -9.360389|    0.824000|    0.012159|
|         109|   -6.751138|   -9.364399|    0.824000|    0.012159|
|         110|   -6.823373|   -9.368488|    0.824000|    0.012159|
|         111|   -6.872876|   -9.372637|    0.824000|    0.012159|
|         112|   -6.903081|   -9.376828|    0.824000|    0.012159|
|         113|   -6.919345|   -9.381055|    0.824000|    0.012159|
|         114|   -6.926138|   -9.385322|    0.824000|    0.012159|
|         115|   -6.928863|   -9.389620|    0.824000|    0.012159|
|         116|   -6.933127|   -9.393924|    0.824000|    0.012159|
|         117|   -6.942535|   -9.398192|    0.824000|    0.012159|
|         118|   -6.957735|   -9.402383|    0.824000|    0.012159|
|         119|   -6.976918|   -9.406465|    0.824000|    0.012159|
|         120|   -6.997158|   -9.410411|    0.824000|    0.012159|
|         121|   -7.016054|   -9.414200|    0.824000|    0.012159|
|         122|   -7.032850|   -9.417811|    0.824000|    0.012159|
|         123|   -7.048316|   -9.421219|    0.824000|    0.012159|
|         124|   -7.063714|   -9.424403|    0.824000|    0.012159|
|         125|   -7.079816|   -9.427348|    0.824000|    0.012159|
|         126|   -7.096588|   -9.430049|    0.824000|    0.012159|
|         127|   -7.113380|   -9.432509|    0.824000|    0.012159|
|         128|   -7.129309|   -9.434736|    0.824000|    0.012159|
|         129|   -7.143551|   -9.436742|    0.824000|    0.012159|
|         130|   -7.155517|   -9.438545|    0.824000|    0.012159|
|         131|   -7.164966|   -9.440165|    0.824000|    0.012159|
|         132|   -7.172084|   -9.441624|    0.824000|    0.012159|
|         133|   -7.177471|   -9.442944|    0.824000|    0.012159|
|         134|   -7.182003|   -9.444149|    0.824000|    0.012159|
|         135|   -7.186604|   -9.445261|    0.824000|    0.012159|
|         136|   -7.192024|   -9.446301|    0.824000|    0.012159|
|         137|   -7.198704|   -9.447289|    0.824000|    0.012159|
|         138|   -7.206719|   -9.448240|    0.824000|    0.012159|
|         139|   -7.215801|   -9.449168|    0.824000|    0.012159|
|         140|   -7.225391|   -9.450085|    0.824000|    0.012159|
|         141|   -7.234745|   -9.450998|    0.824000|    0.012159|
|         142|   -7.243098|   -9.451910|    0.824000|    0.012159|
|         143|   -7.249853|   -9.452820|    0.824000|    0.012159|
|         144|   -7.254749|   -9.453723|    0.824000|    0.012159|
|         145|   -7.257931|   -9.454608|    0.824000|    0.012159|
|         146|   -7.259875|   -9.455461|    0.824000|    0.012159|
|         147|   -7.261226|   -9.456263|    0.824000|    0.012159|
|         148|   -7.262602|   -9.456993|    0.824000|    0.012159|
|         149|   -7.264458|   -9.457625|    0.824000|    0.012159|
|         150|   -7.267019|   -9.458135|    0.824000|    0.012159|
|         151|   -7.270277|   -9.458500|    0.824000|    0.012159|
|         152|   -7.274044|   -9.458698|    0.824000|    0.012159|
|         153|   -7.278030|   -9.458712|    0.824000|    0.012159|
|         154|   -7.281920|   -9.458533|    0.824000|    0.012159|
|         155|   -7.285452|   -9.458156|    0.824000|    0.012159|
|         156|   -7.288461|   -9.457585|    0.824000|    0.012159|
|         157|   -7.290898|   -9.456831|    0.824000|    0.012159|
|         158|   -7.292817|   -9.455915|    0.824000|    0.012159|
|         159|   -7.294338|   -9.454862|    0.824000|    0.012159|
|         160|   -7.295610|   -9.453702|    0.824000|    0.012159|
|         161|   -7.296770|   -9.452473|    0.824000|    0.012159|
|         162|   -7.297929|   -9.451214|    0.824001|    0.012159|
|         163|   -7.299153|   -9.449965|    0.824001|    0.012159|
|         164|   -7.300473|   -9.448767|    0.824001|    0.012159|
|         165|   -7.301893|   -9.447660|    0.824001|    0.012159|
|         166|   -7.303397|   -9.446682|    0.824001|    0.012159|
|         167|   -7.304966|   -9.445868|    0.824001|    0.012159|
|         168|   -7.306580|   -9.445248|    0.824001|    0.012159|
|         169|   -7.308223|   -9.444849|    0.824001|    0.012159|
|         170|   -7.309884|   -9.444693|    0.824001|    0.012159|
|         171|   -7.311554|   -9.444796|    0.824001|    0.012159|
|         172|   -7.313226|   -9.445170|    0.824001|    0.012159|
|         173|   -7.314890|   -9.445823|    0.824001|    0.012159|
|         174|   -7.316535|   -9.446757|    0.824001|    0.012159|
|         175|   -7.318147|   -9.447970|    0.824001|    0.012159|
|         176|   -7.319711|   -9.449458|    0.824001|    0.012159|
|         177|   -7.321211|   -9.451213|    0.824001|    0.012159|
|         178|   -7.322632|   -9.453226|    0.824001|    0.012159|
|         179|   -7.323961|   -9.455483|    0.824001|    0.012159|
|         180|   -7.325189|   -9.457972|    0.824001|    0.012159|
|         181|   -7.326309|   -9.460680|    0.824001|    0.012159|
|         182|   -7.327323|   -9.463594|    0.824001|    0.012159|
|         183|   -7.328233|   -9.466701|    0.824001|    0.012159|
|         184|   -7.329052|   -9.469990|    0.824001|    0.012159|
|         185|   -7.329795|   -9.473453|    0.824001|    0.012159|
|         186|   -7.330484|   -9.477080|    0.824001|    0.012159|
|         187|   -7.331148|   -9.480868|    0.824001|    0.012159|
|         188|   -7.331818|   -9.484813|    0.824001|    0.012159|
|         189|   -7.332533|   -9.488914|    0.824001|    0.012159|
|         190|   -7.333331|   -9.493172|    0.824001|    0.012159|
|         191|   -7.334254|   -9.497592|    0.824001|    0.012159|
|         192|   -7.335342|   -9.502178|    0.824001|    0.012159|
|         193|   -7.336634|   -9.506937|    0.824001|    0.012159|
|         194|   -7.338168|   -9.511875|    0.824001|    0.012159|
|         195|   -7.339976|   -9.517000|    0.824001|    0.012159|
|         196|   -7.342083|   -9.522319|    0.824001|    0.012159|
|         197|   -7.344510|   -9.527839|    0.824001|    0.012159|
|         198|   -7.347268|   -9.533567|    0.824001|    0.012159|
|         199|   -7.350362|   -9.539504|    0.824001|    0.012159|
|         200|   -7.353786|   -9.545655|    0.824001|    0.012159|
|         201|   -7.357522|   -9.552019|    0.824001|    0.012159|
+-----------------------------------------------------------------------+
|Fixed CL Mode                           |Value                         |
+-----------------------------------------------------------------------+
|Current CL                              |0.824001                      |
|Target CL                               |0.824                         |
|Previous AOA                            |2.78081                       |
|Changed AoA by                          |-4.03204e-06                  |
+-----------------------------------------------------------------------+
+----------------------------------------------------------------+
|  Inner_Iter|    rms[Rho]|     rms[nu]|          CL|          CD|
+----------------------------------------------------------------+
|         202|   -5.587807|   -9.463255|    0.824001|    0.012159|
|         203|   -5.972329|   -9.511771|    0.824001|    0.012159|
|         204|   -6.216562|   -9.531941|    0.824001|    0.012159|
|         205|   -6.295376|   -9.546228|    0.824001|    0.012159|
|         206|   -6.348922|   -9.558594|    0.824001|    0.012159|
|         207|   -6.418483|   -9.569977|    0.824001|    0.012159|
|         208|   -6.504516|   -9.580657|    0.824001|    0.012159|
|         209|   -6.594153|   -9.590774|    0.824001|    0.012159|
|         210|   -6.670712|   -9.600383|    0.824001|    0.012159|
|         211|   -6.725776|   -9.609431|    0.824001|    0.012159|
|         212|   -6.761207|   -9.617880|    0.824001|    0.012159|
|         213|   -6.781237|   -9.625812|    0.824001|    0.012159|
|         214|   -6.790001|   -9.633401|    0.824001|    0.012159|
|         215|   -6.793322|   -9.640805|    0.824001|    0.012159|
|         216|   -6.797552|   -9.648034|    0.824001|    0.012159|
|         217|   -6.806864|   -9.655052|    0.824001|    0.012159|
|         218|   -6.822135|   -9.661825|    0.824001|    0.012159|
|         219|   -6.841518|   -9.668368|    0.824001|    0.012159|
|         220|   -6.861893|   -9.674733|    0.824001|    0.012159|
|         221|   -6.880666|   -9.680971|    0.824001|    0.012159|
|         222|   -6.896997|   -9.687097|    0.824001|    0.012159|
|         223|   -6.911708|   -9.693091|    0.824001|    0.012159|
|         224|   -6.926150|   -9.698912|    0.824001|    0.012159|
|         225|   -6.941170|   -9.704525|    0.824001|    0.012159|
|         226|   -6.956773|   -9.709916|    0.824001|    0.012159|
|         227|   -6.972356|   -9.715096|    0.824001|    0.012159|
|         228|   -6.987112|   -9.720093|    0.824001|    0.012159|
|         229|   -7.000318|   -9.724950|    0.824001|    0.012159|
|         230|   -7.011487|   -9.729712|    0.824001|    0.012159|
|         231|   -7.020447|   -9.734431|    0.824001|    0.012159|
|         232|   -7.027407|   -9.739151|    0.824001|    0.012159|
|         233|   -7.032958|   -9.743912|    0.824001|    0.012159|
|         234|   -7.037949|   -9.748736|    0.824001|    0.012159|
|         235|   -7.043292|   -9.753633|    0.824001|    0.012159|
|         236|   -7.049748|   -9.758592|    0.824001|    0.012159|
|         237|   -7.057794|   -9.763585|    0.824001|    0.012159|
|         238|   -7.067569|   -9.768568|    0.824001|    0.012159|
|         239|   -7.078870|   -9.773481|    0.824001|    0.012159|
|         240|   -7.091191|   -9.778254|    0.824001|    0.012159|
|         241|   -7.103800|   -9.782812|    0.824001|    0.012159|
|         242|   -7.115887|   -9.787077|    0.824001|    0.012159|
|         243|   -7.126751|   -9.790971|    0.824001|    0.012159|
|         244|   -7.135999|   -9.794425|    0.824001|    0.012159|
|         245|   -7.143660|   -9.797377|    0.824001|    0.012159|
|         246|   -7.150160|   -9.799776|    0.824001|    0.012159|
|         247|   -7.156168|   -9.801579|    0.824001|    0.012159|
|         248|   -7.162394|   -9.802763|    0.824001|    0.012159|
|         249|   -7.169408|   -9.803321|    0.824001|    0.012159|
|         250|   -7.177540|   -9.803262|    0.824001|    0.012159|
|         251|   -7.186854|   -9.802615|    0.824001|    0.012159|
|         252|   -7.197181|   -9.801436|    0.824001|    0.012159|
|         253|   -7.208183|   -9.799802|    0.824001|    0.012159|
|         254|   -7.219451|   -9.797811|    0.824001|    0.012159|
|         255|   -7.230590|   -9.795580|    0.824001|    0.012159|
|         256|   -7.241306|   -9.793240|    0.824001|    0.012159|
|         257|   -7.251446|   -9.790936|    0.824001|    0.012159|
|         258|   -7.261007|   -9.788809|    0.824001|    0.012159|
|         259|   -7.270105|   -9.786995|    0.824001|    0.012159|
|         260|   -7.278922|   -9.785632|    0.824001|    0.012159|
|         261|   -7.287648|   -9.784844|    0.824001|    0.012159|
|         262|   -7.296443|   -9.784743|    0.824001|    0.012159|
|         263|   -7.305409|   -9.785426|    0.824001|    0.012159|
|         264|   -7.314585|   -9.786969|    0.824001|    0.012159|
|         265|   -7.323962|   -9.789428|    0.824001|    0.012159|
|         266|   -7.333494|   -9.792831|    0.824001|    0.012159|
|         267|   -7.343117|   -9.797177|    0.824001|    0.012159|
|         268|   -7.352767|   -9.802429|    0.824001|    0.012159|
|         269|   -7.362382|   -9.808509|    0.824001|    0.012159|
|         270|   -7.371908|   -9.815290|    0.824001|    0.012159|
|         271|   -7.381293|   -9.822588|    0.824001|    0.012159|
|         272|   -7.390485|   -9.830158|    0.824001|    0.012159|
|         273|   -7.399428|   -9.837692|    0.824001|    0.012159|
|         274|   -7.408054|   -9.844820|    0.824001|    0.012159|
|         275|   -7.416290|   -9.851122|    0.824001|    0.012159|
|         276|   -7.424058|   -9.856154|    0.824001|    0.012159|
|         277|   -7.431279|   -9.859486|    0.824001|    0.012159|
|         278|   -7.437882|   -9.860746|    0.824001|    0.012159|
|         279|   -7.443807|   -9.859669|    0.824001|    0.012159|
|         280|   -7.449011|   -9.856141|    0.824001|    0.012159|
|         281|   -7.453471|   -9.850216|    0.824001|    0.012159|
|         282|   -7.457185|   -9.842106|    0.824000|    0.012159|
|         283|   -7.460169|   -9.832156|    0.824000|    0.012159|
|         284|   -7.462461|   -9.820795|    0.824000|    0.012159|
|         285|   -7.464114|   -9.808487|    0.824000|    0.012159|
|         286|   -7.465193|   -9.795688|    0.824000|    0.012159|
|         287|   -7.465773|   -9.782819|    0.824000|    0.012159|
|         288|   -7.465934|   -9.770243|    0.824000|    0.012159|
|         289|   -7.465760|   -9.758264|    0.824000|    0.012159|
|         290|   -7.465333|   -9.747125|    0.824000|    0.012159|
|         291|   -7.464731|   -9.737011|    0.824000|    0.012159|
|         292|   -7.464027|   -9.728060|    0.824000|    0.012159|
|         293|   -7.463287|   -9.720367|    0.824000|    0.012159|
|         294|   -7.462567|   -9.713994|    0.824000|    0.012159|
|         295|   -7.461918|   -9.708973|    0.824000|    0.012159|
|         296|   -7.461379|   -9.705313|    0.824001|    0.012159|
|         297|   -7.460983|   -9.703001|    0.824001|    0.012159|
|         298|   -7.460752|   -9.702010|    0.824001|    0.012159|
|         299|   -7.460705|   -9.702295|    0.824001|    0.012159|
|         300|   -7.460852|   -9.703798|    0.824001|    0.012159|
|         301|   -7.461200|   -9.706447|    0.824001|    0.012159|
+-----------------------------------------------------------------------+
|Fixed CL Mode                           |Value                         |
+-----------------------------------------------------------------------+
|Current CL                              |0.824001                      |
|Target CL                               |0.824                         |
|Previous AOA                            |2.78081                       |
|Changed AoA by                          |-2.81437e-06                  |
+-----------------------------------------------------------------------+
+----------------------------------------------------------------+
|  Inner_Iter|    rms[Rho]|     rms[nu]|          CL|          CD|
+----------------------------------------------------------------+
|         302|   -5.743859|   -9.615135|    0.824001|    0.012159|
|         303|   -6.127229|   -9.661649|    0.824001|    0.012159|
|         304|   -6.368364|   -9.680901|    0.824001|    0.012159|
|         305|   -6.445754|   -9.694780|    0.824001|    0.012159|
|         306|   -6.498823|   -9.707026|    0.824001|    0.012159|
|         307|   -6.567643|   -9.718431|    0.824001|    0.012159|
|         308|   -6.652442|   -9.729208|    0.824001|    0.012159|
|         309|   -6.740757|   -9.739453|    0.824001|    0.012159|
|         310|   -6.816903|   -9.749174|    0.824001|    0.012159|
|         311|   -6.873190|   -9.758268|    0.824001|    0.012159|
|         312|   -6.911174|   -9.766632|    0.824001|    0.012159|
|         313|   -6.934196|   -9.774266|    0.824001|    0.012159|
|         314|   -6.945530|   -9.781301|    0.824001|    0.012159|
|         315|   -6.950561|   -9.787765|    0.824001|    0.012159|
|         316|   -6.955694|   -9.793642|    0.824001|    0.012159|
|         317|   -6.965398|   -9.798866|    0.824001|    0.012159|
|         318|   -6.980876|   -9.803399|    0.824001|    0.012159|
|         319|   -7.000573|   -9.807270|    0.824001|    0.012159|
|         320|   -7.021641|   -9.810564|    0.824001|    0.012159|
|         321|   -7.041697|   -9.813373|    0.824001|    0.012159|
|         322|   -7.060000|   -9.815759|    0.824001|    0.012159|
|         323|   -7.077346|   -9.817751|    0.824001|    0.012159|
|         324|   -7.094973|   -9.819358|    0.824001|    0.012159|
|         325|   -7.113547|   -9.820594|    0.824001|    0.012159|
|         326|   -7.132818|   -9.821493|    0.824001|    0.012159|
|         327|   -7.151870|   -9.822109|    0.824001|    0.012159|
|         328|   -7.169567|   -9.822512|    0.824001|    0.012159|
|         329|   -7.184934|   -9.822783|    0.824001|    0.012159|
|         330|   -7.197382|   -9.823006|    0.824001|    0.012159|
|         331|   -7.206814|   -9.823258|    0.824001|    0.012159|
|         332|   -7.213659|   -9.823610|    0.824001|    0.012159|
|         333|   -7.218791|   -9.824113|    0.824001|    0.012159|
|         334|   -7.223325|   -9.824801|    0.824001|    0.012159|
|         335|   -7.228343|   -9.825688|    0.824001|    0.012159|
|         336|   -7.234669|   -9.826774|    0.824001|    0.012159|
|         337|   -7.242741|   -9.828043|    0.824001|    0.012159|
|         338|   -7.252573|   -9.829474|    0.824001|    0.012159|
|         339|   -7.263784|   -9.831044|    0.824001|    0.012159|
|         340|   -7.275654|   -9.832729|    0.824001|    0.012159|
|         341|   -7.287247|   -9.834512|    0.824001|    0.012159|
|         342|   -7.297595|   -9.836381|    0.824001|    0.012159|
|         343|   -7.305942|   -9.838331|    0.824001|    0.012159|
|         344|   -7.311971|   -9.840363|    0.824001|    0.012159|
|         345|   -7.315891|   -9.842479|    0.824001|    0.012159|
|         346|   -7.318347|   -9.844682|    0.824001|    0.012159|
|         347|   -7.320195|   -9.846972|    0.824001|    0.012159|
|         348|   -7.322253|   -9.849346|    0.824001|    0.012159|
|         349|   -7.325121|   -9.851792|    0.824001|    0.012159|
|         350|   -7.329107|   -9.854293|    0.824001|    0.012159|
|         351|   -7.334224|   -9.856826|    0.824001|    0.012159|
|         352|   -7.340258|   -9.859360|    0.824001|    0.012159|
|         353|   -7.346854|   -9.861862|    0.824001|    0.012159|
|         354|   -7.353621|   -9.864294|    0.824001|    0.012159|
|         355|   -7.360216|   -9.866620|    0.824001|    0.012159|
|         356|   -7.366419|   -9.868803|    0.824001|    0.012159|
|         357|   -7.372153|   -9.870808|    0.824001|    0.012159|
|         358|   -7.377477|   -9.872609|    0.824001|    0.012159|
|         359|   -7.382544|   -9.874186|    0.824001|    0.012159|
|         360|   -7.387548|   -9.875528|    0.824001|    0.012159|
|         361|   -7.392678|   -9.876637|    0.824001|    0.012159|
|         362|   -7.398083|   -9.877529|    0.824001|    0.012159|
|         363|   -7.403862|   -9.878232|    0.824001|    0.012159|
|         364|   -7.410061|   -9.878791|    0.824001|    0.012159|
|         365|   -7.416689|   -9.879263|    0.824001|    0.012159|
|         366|   -7.423732|   -9.879717|    0.824001|    0.012159|
|         367|   -7.431168|   -9.880233|    0.824001|    0.012159|
|         368|   -7.438978|   -9.880897|    0.824001|    0.012159|
|         369|   -7.447152|   -9.881799|    0.824001|    0.012159|
|         370|   -7.455687|   -9.883031|    0.824001|    0.012159|
|         371|   -7.464586|   -9.884680|    0.824001|    0.012159|
|         372|   -7.473853|   -9.886825|    0.824001|    0.012159|
|         373|   -7.483488|   -9.889536|    0.824001|    0.012159|
|         374|   -7.493481|   -9.892867|    0.824001|    0.012159|
|         375|   -7.503814|   -9.896858|    0.824001|    0.012159|
|         376|   -7.514461|   -9.901523|    0.824001|    0.012159|
|         377|   -7.525385|   -9.906855|    0.824001|    0.012159|
|         378|   -7.536540|   -9.912819|    0.824000|    0.012159|
|         379|   -7.547877|   -9.919348|    0.824000|    0.012159|
|         380|   -7.559339|   -9.926345|    0.824000|    0.012159|
|         381|   -7.570866|   -9.933677|    0.824000|    0.012159|
|         382|   -7.582396|   -9.941177|    0.824000|    0.012159|
|         383|   -7.593862|   -9.948649|    0.824000|    0.012159|
|         384|   -7.605198|   -9.955871|    0.824000|    0.012159|
|         385|   -7.616334|   -9.962608|    0.824000|    0.012159|
|         386|   -7.627204|   -9.968625|    0.824000|    0.012159|
|         387|   -7.637739|   -9.973707|    0.824000|    0.012159|
|         388|   -7.647877|   -9.977679|    0.824000|    0.012159|
|         389|   -7.657560|   -9.980422|    0.824000|    0.012159|
|         390|   -7.666735|   -9.981892|    0.824000|    0.012159|
|         391|   -7.675358|   -9.982126|    0.824000|    0.012159|
|         392|   -7.683393|   -9.981239|    0.824000|    0.012159|
|         393|   -7.690811|   -9.979413|    0.824000|    0.012159|
|         394|   -7.697595|   -9.976884|    0.824000|    0.012159|
|         395|   -7.703734|   -9.973919|    0.824000|    0.012159|
|         396|   -7.709224|   -9.970799|    0.824000|    0.012159|
|         397|   -7.714073|   -9.967801|    0.824000|    0.012159|
|         398|   -7.718293|   -9.965185|    0.824000|    0.012159|
|         399|   -7.721901|   -9.963185|    0.824000|    0.012159|
|         400|   -7.724923|   -9.962008|    0.824000|    0.012159|
|         401|   -7.727388|   -9.961826|    0.824000|    0.012159|
|         402|   -7.729328|   -9.962781|    0.824000|    0.012159|
|         403|   -7.730780|   -9.964982|    0.824000|    0.012159|
|         404|   -7.731785|   -9.968511|    0.824000|    0.012159|
|         405|   -7.732383|   -9.973419|    0.824000|    0.012159|
|         406|   -7.732618|   -9.979729|    0.824000|    0.012159|
|         407|   -7.732534|   -9.987435|    0.824000|    0.012159|
|         408|   -7.732177|   -9.996499|    0.824000|    0.012159|
|         409|   -7.731592|  -10.006851|    0.824000|    0.012159|
|         410|   -7.730823|  -10.018382|    0.824000|    0.012159|
|         411|   -7.729916|  -10.030940|    0.824000|    0.012159|
|         412|   -7.728916|  -10.044323|    0.824000|    0.012159|
|         413|   -7.727865|  -10.058278|    0.824000|    0.012159|
|         414|   -7.726806|  -10.072493|    0.824001|    0.012159|
|         415|   -7.725781|  -10.086605|    0.824001|    0.012159|
|         416|   -7.724829|  -10.100202|    0.824001|    0.012159|
|         417|   -7.723989|  -10.112845|    0.824001|    0.012159|
|         418|   -7.723298|  -10.124097|    0.824001|    0.012159|
|         419|   -7.722791|  -10.133564|    0.824001|    0.012159|
|         420|   -7.722501|  -10.140932|    0.824001|    0.012159|
|         421|   -7.722459|  -10.146011|    0.824001|    0.012159|
|         422|   -7.722693|  -10.148759|    0.824001|    0.012159|
|         423|   -7.723230|  -10.149284|    0.824001|    0.012159|
|         424|   -7.724092|  -10.147826|    0.824001|    0.012159|
|         425|   -7.725302|  -10.144722|    0.824001|    0.012159|
|         426|   -7.726876|  -10.140361|    0.824001|    0.012159|
|         427|   -7.728829|  -10.135147|    0.824001|    0.012159|
|         428|   -7.731174|  -10.129460|    0.824001|    0.012159|
|         429|   -7.733920|  -10.123639|    0.824001|    0.012159|
|         430|   -7.737072|  -10.117968|    0.824001|    0.012159|
|         431|   -7.740634|  -10.112673|    0.824001|    0.012159|
|         432|   -7.744605|  -10.107925|    0.824001|    0.012159|
|         433|   -7.748982|  -10.103841|    0.824001|    0.012159|
|         434|   -7.753757|  -10.100497|    0.824001|    0.012159|
|         435|   -7.758921|  -10.097928|    0.824001|    0.012159|
|         436|   -7.764458|  -10.096138|    0.824001|    0.012159|
|         437|   -7.770352|  -10.095106|    0.824001|    0.012159|
|         438|   -7.776580|  -10.094789|    0.824001|    0.012159|
|         439|   -7.783116|  -10.095128|    0.824001|    0.012159|
|         440|   -7.789930|  -10.096052|    0.824001|    0.012159|
|         441|   -7.796988|  -10.097484|    0.824001|    0.012159|
|         442|   -7.804251|  -10.099340|    0.824001|    0.012159|
|         443|   -7.811678|  -10.101538|    0.824001|    0.012159|
|         444|   -7.819223|  -10.103995|    0.824001|    0.012159|
|         445|   -7.826836|  -10.106638|    0.824001|    0.012159|
|         446|   -7.834467|  -10.109395|    0.824001|    0.012159|
|         447|   -7.842062|  -10.112208|    0.824001|    0.012159|
|         448|   -7.849567|  -10.115022|    0.824001|    0.012159|
|         449|   -7.856928|  -10.117796|    0.824001|    0.012159|
|         450|   -7.864092|  -10.120490|    0.824001|    0.012159|
|         451|   -7.871009|  -10.123073|    0.824001|    0.012159|
|         452|   -7.877633|  -10.125514|    0.824001|    0.012159|
|         453|   -7.883922|  -10.127782|    0.824001|    0.012159|
|         454|   -7.889841|  -10.129840|    0.824001|    0.012159|
|         455|   -7.895361|  -10.131648|    0.824001|    0.012159|
|         456|   -7.900461|  -10.133156|    0.824001|    0.012159|
|         457|   -7.905128|  -10.134305|    0.824001|    0.012159|
|         458|   -7.909356|  -10.135029|    0.824001|    0.012159|
|         459|   -7.913147|  -10.135258|    0.824001|    0.012159|
|         460|   -7.916510|  -10.134916|    0.824001|    0.012159|
|         461|   -7.919459|  -10.133932|    0.824001|    0.012159|
|         462|   -7.922015|  -10.132245|    0.824001|    0.012159|
|         463|   -7.924203|  -10.129807|    0.824001|    0.012159|
|         464|   -7.926050|  -10.126589|    0.824001|    0.012159|
|         465|   -7.927586|  -10.122590|    0.824001|    0.012159|
|         466|   -7.928842|  -10.117834|    0.824001|    0.012159|
|         467|   -7.929850|  -10.112374|    0.824001|    0.012159|
|         468|   -7.930641|  -10.106289|    0.824001|    0.012159|
|         469|   -7.931247|  -10.099679|    0.824001|    0.012159|
|         470|   -7.931696|  -10.092663|    0.824001|    0.012159|
|         471|   -7.932018|  -10.085369|    0.824001|    0.012159|
|         472|   -7.932240|  -10.077929|    0.824001|    0.012159|
|         473|   -7.932387|  -10.070475|    0.824001|    0.012159|
|         474|   -7.932484|  -10.063134|    0.824001|    0.012159|
|         475|   -7.932555|  -10.056019|    0.824001|    0.012159|
|         476|   -7.932622|  -10.049232|    0.824001|    0.012159|
|         477|   -7.932706|  -10.042860|    0.824001|    0.012159|
|         478|   -7.932828|  -10.036973|    0.824001|    0.012159|
|         479|   -7.933009|  -10.031626|    0.824001|    0.012159|
|         480|   -7.933267|  -10.026856|    0.824001|    0.012159|
|         481|   -7.933623|  -10.022684|    0.824001|    0.012159|
|         482|   -7.934096|  -10.019118|    0.824001|    0.012159|
|         483|   -7.934704|  -10.016149|    0.824001|    0.012159|
|         484|   -7.935467|  -10.013756|    0.824001|    0.012159|
|         485|   -7.936403|  -10.011908|    0.824001|    0.012159|
|         486|   -7.937531|  -10.010560|    0.824001|    0.012159|
|         487|   -7.938868|  -10.009661|    0.824001|    0.012159|
|         488|   -7.940431|  -10.009151|    0.824001|    0.012159|
|         489|   -7.942239|  -10.008964|    0.824001|    0.012159|
|         490|   -7.944306|  -10.009033|    0.824001|    0.012159|
|         491|   -7.946647|  -10.009290|    0.824001|    0.012159|
|         492|   -7.949275|  -10.009665|    0.824001|    0.012159|
|         493|   -7.952203|  -10.010096|    0.824001|    0.012159|
|         494|   -7.955441|  -10.010525|    0.824001|    0.012159|
|         495|   -7.958995|  -10.010904|    0.824001|    0.012159|
|         496|   -7.962872|  -10.011193|    0.824001|    0.012159|
|         497|   -7.967074|  -10.011363|    0.824001|    0.012159|
|         498|   -7.971598|  -10.011400|    0.824001|    0.012159|
|         499|   -7.976442|  -10.011299|    0.824001|    0.012159|
|         500|   -7.981595|  -10.011065|    0.824001|    0.012159|
|         501|   -7.987044|  -10.010715|    0.824000|    0.012159|
+-----------------------------------------------------------------------+
|Fixed CL Mode                           |Value                         |
+-----------------------------------------------------------------------+
|Current CL                              |0.824                         |
|Target CL                               |0.824                         |
|Previous AOA                            |2.7808                        |
|Changed AoA by                          |-2.50101e-06                  |
+-----------------------------------------------------------------------+
+----------------------------------------------------------------+
|  Inner_Iter|    rms[Rho]|     rms[nu]|          CL|          CD|
+----------------------------------------------------------------+
|         502|   -5.795286|   -9.796053|    0.824000|    0.012159|
|         503|   -6.179870|   -9.879679|    0.824000|    0.012159|
|         504|   -6.424311|   -9.910481|    0.824000|    0.012159|
|         505|   -6.503485|   -9.928469|    0.824000|    0.012159|
|         506|   -6.557435|   -9.941768|    0.824000|    0.012159|
|         507|   -6.627517|   -9.952375|    0.824000|    0.012159|
|         508|   -6.714378|   -9.960823|    0.824000|    0.012159|
|         509|   -6.805377|   -9.967487|    0.824000|    0.012159|
|         510|   -6.883892|   -9.972603|    0.824000|    0.012159|
|         511|   -6.941249|   -9.976247|    0.824000|    0.012159|
|         512|   -6.978887|   -9.978555|    0.824000|    0.012159|
|         513|   -7.000623|   -9.979970|    0.824000|    0.012159|
|         514|   -7.010370|   -9.981057|    0.824000|    0.012159|
|         515|   -7.014115|   -9.982174|    0.824000|    0.012159|
|         516|   -7.018616|   -9.983495|    0.824000|    0.012159|
|         517|   -7.028398|   -9.985031|    0.824000|    0.012159|
|         518|   -7.044520|   -9.986785|    0.824000|    0.012159|
|         519|   -7.065147|   -9.988824|    0.824000|    0.012159|
|         520|   -7.087059|   -9.991256|    0.824000|    0.012159|
|         521|   -7.107513|   -9.994160|    0.824000|    0.012159|
|         522|   -7.125594|   -9.997531|    0.824001|    0.012159|
|         523|   -7.142163|  -10.001285|    0.824001|    0.012159|
|         524|   -7.158676|  -10.005289|    0.824001|    0.012159|
|         525|   -7.176046|  -10.009406|    0.824001|    0.012159|
|         526|   -7.194257|  -10.013522|    0.824001|    0.012159|
|         527|   -7.212596|  -10.017557|    0.824001|    0.012159|
|         528|   -7.230078|  -10.021459|    0.824001|    0.012159|
|         529|   -7.245795|  -10.025205|    0.824001|    0.012159|
|         530|   -7.259103|  -10.028788|    0.824001|    0.012159|
|         531|   -7.269748|  -10.032221|    0.824001|    0.012159|
|         532|   -7.277957|  -10.035523|    0.824001|    0.012159|
|         533|   -7.284443|  -10.038715|    0.824001|    0.012159|
|         534|   -7.290251|  -10.041816|    0.824001|    0.012159|
|         535|   -7.296499|  -10.044831|    0.824001|    0.012159|
|         536|   -7.304121|  -10.047755|    0.824001|    0.012159|
|         537|   -7.313709|  -10.050577|    0.824001|    0.012159|
|         538|   -7.325442|  -10.053275|    0.824001|    0.012159|
|         539|   -7.339083|  -10.055826|    0.824001|    0.012159|
|         540|   -7.354007|  -10.058210|    0.824001|    0.012159|
|         541|   -7.369283|  -10.060409|    0.824001|    0.012159|
|         542|   -7.383845|  -10.062414|    0.824001|    0.012159|
|         543|   -7.396738|  -10.064223|    0.824001|    0.012159|
|         544|   -7.407412|  -10.065841|    0.824001|    0.012159|
|         545|   -7.415894|  -10.067278|    0.824001|    0.012159|
|         546|   -7.422770|  -10.068539|    0.824001|    0.012159|
|         547|   -7.428968|  -10.069629|    0.824000|    0.012159|
|         548|   -7.435470|  -10.070545|    0.824000|    0.012159|
|         549|   -7.443065|  -10.071277|    0.824000|    0.012159|
|         550|   -7.452224|  -10.071810|    0.824000|    0.012159|
|         551|   -7.463058|  -10.072129|    0.824000|    0.012159|
|         552|   -7.475364|  -10.072218|    0.824000|    0.012159|
|         553|   -7.488709|  -10.072069|    0.824000|    0.012159|
|         554|   -7.502540|  -10.071687|    0.824000|    0.012159|
|         555|   -7.516305|  -10.071088|    0.824000|    0.012159|
|         556|   -7.529570|  -10.070307|    0.824000|    0.012159|
|         557|   -7.542088|  -10.069395|    0.824000|    0.012159|
|         558|   -7.553829|  -10.068422|    0.824000|    0.012159|
|         559|   -7.564943|  -10.067472|    0.824000|    0.012159|
|         560|   -7.575686|  -10.066646|    0.824000|    0.012159|
|         561|   -7.586344|  -10.066053|    0.824000|    0.012159|
|         562|   -7.597166|  -10.065810|    0.824000|    0.012159|
|         563|   -7.608324|  -10.066042|    0.824000|    0.012159|
|         564|   -7.619907|  -10.066869|    0.824000|    0.012159|
|         565|   -7.631933|  -10.068414|    0.824000|    0.012159|
|         566|   -7.644369|  -10.070789|    0.824000|    0.012159|
|         567|   -7.657164|  -10.074098|    0.824000|    0.012159|
|         568|   -7.670262|  -10.078430|    0.824000|    0.012159|
|         569|   -7.683622|  -10.083856|    0.824000|    0.012159|
|         570|   -7.697216|  -10.090424|    0.824000|    0.012159|
|         571|   -7.711027|  -10.098151|    0.824000|    0.012159|
|         572|   -7.725038|  -10.107022|    0.824000|    0.012159|
|         573|   -7.739225|  -10.116973|    0.824000|    0.012159|
|         574|   -7.753544|  -10.127892|    0.824000|    0.012159|
|         575|   -7.767927|  -10.139600|    0.824000|    0.012159|
|         576|   -7.782284|  -10.151846|    0.824000|    0.012159|
|         577|   -7.796505|  -10.164300|    0.824000|    0.012159|
|         578|   -7.810461|  -10.176549|    0.824000|    0.012159|
|         579|   -7.824017|  -10.188109|    0.824000|    0.012159|
|         580|   -7.837035|  -10.198449|    0.824000|    0.012159|
|         581|   -7.849383|  -10.207034|    0.824000|    0.012159|
|         582|   -7.860941|  -10.213386|    0.824000|    0.012159|
|         583|   -7.871609|  -10.217152|    0.824000|    0.012159|
|         584|   -7.881309|  -10.218161|    0.824000|    0.012159|
|         585|   -7.889994|  -10.216457|    0.824000|    0.012159|
|         586|   -7.897647|  -10.212296|    0.824000|    0.012159|
|         587|   -7.904283|  -10.206099|    0.824000|    0.012159|
|         588|   -7.909950|  -10.198395|    0.824000|    0.012159|
|         589|   -7.914724|  -10.189752|    0.824000|    0.012159|
|         590|   -7.918702|  -10.180724|    0.824000|    0.012159|
|         591|   -7.921999|  -10.171808|    0.824000|    0.012159|
|         592|   -7.924740|  -10.163434|    0.824000|    0.012159|
|         593|   -7.927050|  -10.155948|    0.824000|    0.012159|
|         594|   -7.929051|  -10.149626|    0.824000|    0.012159|
|         595|   -7.930858|  -10.144676|    0.824000|    0.012159|
|         596|   -7.932570|  -10.141247|    0.824000|    0.012159|
|         597|   -7.934275|  -10.139445|    0.824000|    0.012159|
|         598|   -7.936043|  -10.139330|    0.824000|    0.012159|
|         599|   -7.937929|  -10.140930|    0.824000|    0.012159|
|         600|   -7.939975|  -10.144240|    0.824000|    0.012159|
|         601|   -7.942208|  -10.149222|    0.824000|    0.012159|
|         602|   -7.944641|  -10.155807|    0.824000|    0.012159|
|         603|   -7.947278|  -10.163889|    0.824000|    0.012159|
|         604|   -7.950114|  -10.173322|    0.824000|    0.012159|
|         605|   -7.953136|  -10.183909|    0.824000|    0.012159|
|         606|   -7.956325|  -10.195401|    0.824000|    0.012159|
|         607|   -7.959658|  -10.207485|    0.824000|    0.012159|
|         608|   -7.963109|  -10.219783|    0.824000|    0.012159|
|         609|   -7.966652|  -10.231851|    0.824000|    0.012159|
|         610|   -7.970261|  -10.243198|    0.824000|    0.012159|
|         611|   -7.973911|  -10.253302|    0.824000|    0.012159|
|         612|   -7.977582|  -10.261660|    0.824000|    0.012159|
|         613|   -7.981254|  -10.267832|    0.824000|    0.012159|
|         614|   -7.984917|  -10.271499|    0.824000|    0.012159|
|         615|   -7.988562|  -10.272507|    0.824000|    0.012159|
|         616|   -7.992187|  -10.270889|    0.824000|    0.012159|
|         617|   -7.995797|  -10.266853|    0.824000|    0.012159|
|         618|   -7.999399|  -10.260751|    0.824000|    0.012159|
|         619|   -8.003007|  -10.253023|    0.824000|    0.012159|
|         620|   -8.006637|  -10.244146|    0.824000|    0.012159|
|         621|   -8.010309|  -10.234584|    0.824000|    0.012159|
|         622|   -8.014044|  -10.224762|    0.824000|    0.012159|
|         623|   -8.017865|  -10.215042|    0.824000|    0.012159|
|         624|   -8.021792|  -10.205724|    0.824000|    0.012159|
|         625|   -8.025846|  -10.197041|    0.824000|    0.012159|
|         626|   -8.030045|  -10.189170|    0.824000|    0.012159|
|         627|   -8.034406|  -10.182239|    0.824000|    0.012159|
|         628|   -8.038942|  -10.176333|    0.824000|    0.012159|
|         629|   -8.043661|  -10.171504|    0.824000|    0.012159|
|         630|   -8.048570|  -10.167776|    0.824000|    0.012159|
|         631|   -8.053670|  -10.165147|    0.824000|    0.012159|
|         632|   -8.058958|  -10.163600|    0.824000|    0.012159|
|         633|   -8.064426|  -10.163096|    0.824000|    0.012159|
|         634|   -8.070061|  -10.163586|    0.824000|    0.012159|
|         635|   -8.075847|  -10.165004|    0.824000|    0.012159|
|         636|   -8.081762|  -10.167273|    0.824000|    0.012159|
|         637|   -8.087778|  -10.170304|    0.824000|    0.012159|
|         638|   -8.093863|  -10.173997|    0.824000|    0.012159|
|         639|   -8.099982|  -10.178241|    0.824000|    0.012159|
|         640|   -8.106094|  -10.182919|    0.824000|    0.012159|
|         641|   -8.112155|  -10.187904|    0.824000|    0.012159|
|         642|   -8.118121|  -10.193070|    0.824000|    0.012159|
|         643|   -8.123945|  -10.198285|    0.824000|    0.012159|
|         644|   -8.129581|  -10.203426|    0.824000|    0.012159|
|         645|   -8.134987|  -10.208375|    0.824000|    0.012159|
|         646|   -8.140122|  -10.213027|    0.824000|    0.012159|
|         647|   -8.144955|  -10.217294|    0.824000|    0.012159|
|         648|   -8.149458|  -10.221109|    0.824000|    0.012159|
|         649|   -8.153616|  -10.224428|    0.824000|    0.012159|
|         650|   -8.157419|  -10.227229|    0.824000|    0.012159|
|         651|   -8.160871|  -10.229512|    0.824000|    0.012159|
|         652|   -8.163984|  -10.231297|    0.824000|    0.012159|
|         653|   -8.166779|  -10.232620|    0.824000|    0.012159|
|         654|   -8.169285|  -10.233525|    0.824000|    0.012159|
|         655|   -8.171538|  -10.234065|    0.824000|    0.012159|
|         656|   -8.173579|  -10.234288|    0.824000|    0.012159|
|         657|   -8.175450|  -10.234243|    0.824000|    0.012159|
|         658|   -8.177196|  -10.233966|    0.824000|    0.012159|
|         659|   -8.178861|  -10.233486|    0.824000|    0.012159|
|         660|   -8.180484|  -10.232819|    0.824000|    0.012159|
|         661|   -8.182103|  -10.231969|    0.824000|    0.012159|
|         662|   -8.183749|  -10.230930|    0.824000|    0.012159|
|         663|   -8.185450|  -10.229690|    0.824000|    0.012159|
|         664|   -8.187224|  -10.228227|    0.824000|    0.012159|
|         665|   -8.189085|  -10.226523|    0.824000|    0.012159|
|         666|   -8.191040|  -10.224558|    0.824000|    0.012159|
|         667|   -8.193089|  -10.222319|    0.824000|    0.012159|
|         668|   -8.195225|  -10.219804|    0.824000|    0.012159|
|         669|   -8.197437|  -10.217021|    0.824000|    0.012159|
|         670|   -8.199707|  -10.213991|    0.824000|    0.012159|
|         671|   -8.202014|  -10.210751|    0.824000|    0.012159|
|         672|   -8.204332|  -10.207349|    0.824000|    0.012159|
|         673|   -8.206632|  -10.203844|    0.824000|    0.012159|
|         674|   -8.208886|  -10.200306|    0.824000|    0.012159|
|         675|   -8.211062|  -10.196809|    0.824000|    0.012159|
|         676|   -8.213129|  -10.193430|    0.824000|    0.012159|
|         677|   -8.215061|  -10.190245|    0.824000|    0.012159|
|         678|   -8.216829|  -10.187326|    0.824000|    0.012159|
|         679|   -8.218412|  -10.184739|    0.824000|    0.012159|
|         680|   -8.219792|  -10.182539|    0.824000|    0.012159|
|         681|   -8.220955|  -10.180773|    0.824000|    0.012159|
|         682|   -8.221894|  -10.179473|    0.824000|    0.012159|
|         683|   -8.222609|  -10.178658|    0.824000|    0.012159|
|         684|   -8.223103|  -10.178335|    0.824000|    0.012159|
|         685|   -8.223388|  -10.178496|    0.824000|    0.012159|
|         686|   -8.223479|  -10.179119|    0.824000|    0.012159|
|         687|   -8.223400|  -10.180169|    0.824000|    0.012159|
|         688|   -8.223175|  -10.181599|    0.824000|    0.012159|
|         689|   -8.222834|  -10.183352|    0.824000|    0.012159|
|         690|   -8.222409|  -10.185362|    0.824000|    0.012159|
|         691|   -8.221934|  -10.187557|    0.824000|    0.012159|
|         692|   -8.221445|  -10.189859|    0.824000|    0.012159|
|         693|   -8.220976|  -10.192192|    0.824000|    0.012159|
|         694|   -8.220563|  -10.194481|    0.824000|    0.012159|
|         695|   -8.220239|  -10.196660|    0.824000|    0.012159|
|         696|   -8.220035|  -10.198669|    0.824000|    0.012159|
|         697|   -8.219981|  -10.200462|    0.824000|    0.012159|
|         698|   -8.220103|  -10.202006|    0.824000|    0.012159|
|         699|   -8.220424|  -10.203283|    0.824000|    0.012159|
|         700|   -8.220964|  -10.204292|    0.824000|    0.012159|
|         701|   -8.221741|  -10.205045|    0.824000|    0.012159|
|         702|   -8.222765|  -10.205566|    0.824000|    0.012159|
|         703|   -8.224047|  -10.205892|    0.824000|    0.012159|
|         704|   -8.225590|  -10.206064|    0.824000|    0.012159|
|         705|   -8.227397|  -10.206131|    0.824000|    0.012159|
|         706|   -8.229464|  -10.206140|    0.824000|    0.012159|
|         707|   -8.231784|  -10.206140|    0.824000|    0.012159|
|         708|   -8.234345|  -10.206175|    0.824000|    0.012159|
|         709|   -8.237134|  -10.206282|    0.824000|    0.012159|
|         710|   -8.240132|  -10.206496|    0.824000|    0.012159|
|         711|   -8.243315|  -10.206842|    0.824000|    0.012159|
|         712|   -8.246659|  -10.207337|    0.824000|    0.012159|
|         713|   -8.250133|  -10.207995|    0.824000|    0.012159|
|         714|   -8.253706|  -10.208820|    0.824000|    0.012159|
|         715|   -8.257342|  -10.209812|    0.824000|    0.012159|
|         716|   -8.261005|  -10.210967|    0.824000|    0.012159|
|         717|   -8.264656|  -10.212279|    0.824000|    0.012159|
|         718|   -8.268255|  -10.213736|    0.824000|    0.012159|
|         719|   -8.271762|  -10.215330|    0.824000|    0.012159|
|         720|   -8.275140|  -10.217048|    0.824000|    0.012159|
|         721|   -8.278350|  -10.218883|    0.824000|    0.012159|
|         722|   -8.281358|  -10.220824|    0.824000|    0.012159|
|         723|   -8.284133|  -10.222865|    0.824000|    0.012159|
|         724|   -8.286648|  -10.225002|    0.824000|    0.012159|
|         725|   -8.288882|  -10.227230|    0.824000|    0.012159|
|         726|   -8.290818|  -10.229549|    0.824000|    0.012159|
|         727|   -8.292447|  -10.231959|    0.824000|    0.012159|
|         728|   -8.293767|  -10.234459|    0.824000|    0.012159|
|         729|   -8.294781|  -10.237052|    0.824000|    0.012159|
|         730|   -8.295498|  -10.239739|    0.824000|    0.012159|
|         731|   -8.295937|  -10.242519|    0.824000|    0.012159|
|         732|   -8.296117|  -10.245394|    0.824000|    0.012159|
|         733|   -8.296065|  -10.248363|    0.824000|    0.012159|
|         734|   -8.295812|  -10.251423|    0.824000|    0.012159|
|         735|   -8.295390|  -10.254572|    0.824000|    0.012159|
|         736|   -8.294835|  -10.257807|    0.824000|    0.012159|
|         737|   -8.294183|  -10.261124|    0.824000|    0.012159|
|         738|   -8.293470|  -10.264518|    0.824000|    0.012159|
|         739|   -8.292734|  -10.267985|    0.824000|    0.012159|
|         740|   -8.292009|  -10.271522|    0.824000|    0.012159|
|         741|   -8.291328|  -10.275126|    0.824000|    0.012159|
|         742|   -8.290723|  -10.278794|    0.824000|    0.012159|
|         743|   -8.290224|  -10.282527|    0.824000|    0.012159|
|         744|   -8.289856|  -10.286327|    0.824000|    0.012159|
|         745|   -8.289644|  -10.290197|    0.824000|    0.012159|
|         746|   -8.289608|  -10.294141|    0.824000|    0.012159|
|         747|   -8.289767|  -10.298168|    0.824000|    0.012159|
|         748|   -8.290137|  -10.302284|    0.824000|    0.012159|
|         749|   -8.290730|  -10.306501|    0.824000|    0.012159|
|         750|   -8.291558|  -10.310830|    0.824000|    0.012159|
|         751|   -8.292629|  -10.315282|    0.824000|    0.012159|
|         752|   -8.293949|  -10.319871|    0.824000|    0.012159|
|         753|   -8.295525|  -10.324611|    0.824000|    0.012159|
|         754|   -8.297359|  -10.329515|    0.824000|    0.012159|
|         755|   -8.299454|  -10.334596|    0.824000|    0.012159|
|         756|   -8.301810|  -10.339870|    0.824000|    0.012159|
|         757|   -8.304427|  -10.345349|    0.824000|    0.012159|
|         758|   -8.307303|  -10.351045|    0.824000|    0.012159|
|         759|   -8.310438|  -10.356971|    0.824000|    0.012159|
|         760|   -8.313827|  -10.363137|    0.824000|    0.012159|
|         761|   -8.317467|  -10.369554|    0.824000|    0.012159|
|         762|   -8.321353|  -10.376230|    0.824000|    0.012159|
|         763|   -8.325478|  -10.383172|    0.824000|    0.012159|
|         764|   -8.329833|  -10.390384|    0.824000|    0.012159|
|         765|   -8.334411|  -10.397870|    0.824000|    0.012159|
|         766|   -8.339198|  -10.405630|    0.824000|    0.012159|
|         767|   -8.344180|  -10.413661|    0.824000|    0.012159|
|         768|   -8.349341|  -10.421955|    0.824000|    0.012159|
|         769|   -8.354660|  -10.430505|    0.824000|    0.012159|
|         770|   -8.360114|  -10.439295|    0.824000|    0.012159|
|         771|   -8.365674|  -10.448308|    0.824000|    0.012159|
|         772|   -8.371309|  -10.457520|    0.824000|    0.012159|
|         773|   -8.376982|  -10.466904|    0.824000|    0.012159|
|         774|   -8.382652|  -10.476428|    0.824000|    0.012159|
|         775|   -8.388274|  -10.486055|    0.824000|    0.012159|
|         776|   -8.393800|  -10.495744|    0.824000|    0.012159|
|         777|   -8.399176|  -10.505451|    0.824000|    0.012159|
|         778|   -8.404348|  -10.515129|    0.824000|    0.012159|
|         779|   -8.409261|  -10.524729|    0.824000|    0.012159|
|         780|   -8.413860|  -10.534203|    0.824000|    0.012159|
|         781|   -8.418091|  -10.543503|    0.824000|    0.012159|
|         782|   -8.421908|  -10.552584|    0.824000|    0.012159|
|         783|   -8.425267|  -10.561404|    0.824000|    0.012159|
|         784|   -8.428135|  -10.569930|    0.824000|    0.012159|
|         785|   -8.430489|  -10.578132|    0.824000|    0.012159|
|         786|   -8.432318|  -10.585989|    0.824000|    0.012159|
|         787|   -8.433623|  -10.593489|    0.824000|    0.012159|
|         788|   -8.434417|  -10.600627|    0.824000|    0.012159|
|         789|   -8.434727|  -10.607407|    0.824000|    0.012159|
|         790|   -8.434593|  -10.613841|    0.824000|    0.012159|
|         791|   -8.434063|  -10.619944|    0.824000|    0.012159|
|         792|   -8.433197|  -10.625739|    0.824000|    0.012159|
|         793|   -8.432059|  -10.631249|    0.824000|    0.012159|
|         794|   -8.430718|  -10.636502|    0.824000|    0.012159|
|         795|   -8.429248|  -10.641524|    0.824000|    0.012159|
|         796|   -8.427719|  -10.646339|    0.824000|    0.012159|
|         797|   -8.426205|  -10.650972|    0.824000|    0.012159|
|         798|   -8.424774|  -10.655440|    0.824000|    0.012159|
|         799|   -8.423491|  -10.659762|    0.824000|    0.012159|
|         800|   -8.422417|  -10.663951|    0.824000|    0.012159|
|         801|   -8.421605|  -10.668015|    0.824000|    0.012159|
|         802|   -8.421106|  -10.671963|    0.824000|    0.012159|
|         803|   -8.420960|  -10.675799|    0.824000|    0.012159|
|         804|   -8.421205|  -10.679526|    0.824000|    0.012159|
|         805|   -8.421872|  -10.683147|    0.824000|    0.012159|
|         806|   -8.422982|  -10.686666|    0.824000|    0.012159|
|         807|   -8.424554|  -10.690086|    0.824000|    0.012159|
|         808|   -8.426600|  -10.693413|    0.824000|    0.012159|
|         809|   -8.429124|  -10.696656|    0.824000|    0.012159|
|         810|   -8.432125|  -10.699825|    0.824000|    0.012159|
|         811|   -8.435596|  -10.702934|    0.824000|    0.012159|
|         812|   -8.439525|  -10.705997|    0.824000|    0.012159|
|         813|   -8.443892|  -10.709032|    0.824000|    0.012159|
|         814|   -8.448672|  -10.712058|    0.824000|    0.012159|
|         815|   -8.453833|  -10.715094|    0.824000|    0.012159|
|         816|   -8.459338|  -10.718159|    0.824000|    0.012159|
|         817|   -8.465143|  -10.721270|    0.824000|    0.012159|
|         818|   -8.471197|  -10.724444|    0.824000|    0.012159|
|         819|   -8.477445|  -10.727692|    0.824000|    0.012159|
|         820|   -8.483825|  -10.731023|    0.824000|    0.012159|
|         821|   -8.490273|  -10.734443|    0.824000|    0.012159|
|         822|   -8.496719|  -10.737949|    0.824000|    0.012159|
|         823|   -8.503090|  -10.741536|    0.824000|    0.012159|
|         824|   -8.509312|  -10.745191|    0.824000|    0.012159|
|         825|   -8.515314|  -10.748898|    0.824000|    0.012159|
|         826|   -8.521024|  -10.752633|    0.824000|    0.012159|
|         827|   -8.526378|  -10.756367|    0.824000|    0.012159|
|         828|   -8.531316|  -10.760070|    0.824000|    0.012159|
|         829|   -8.535790|  -10.763703|    0.824000|    0.012159|
|         830|   -8.539759|  -10.767229|    0.824000|    0.012159|
|         831|   -8.543199|  -10.770608|    0.824000|    0.012159|
|         832|   -8.546095|  -10.773799|    0.824000|    0.012159|
|         833|   -8.548445|  -10.776765|    0.824000|    0.012159|
|         834|   -8.550266|  -10.779469|    0.824000|    0.012159|
|         835|   -8.551580|  -10.781881|    0.824000|    0.012159|
|         836|   -8.552424|  -10.783976|    0.824000|    0.012159|
|         837|   -8.552841|  -10.785735|    0.824000|    0.012159|
|         838|   -8.552884|  -10.787146|    0.824000|    0.012159|
|         839|   -8.552608|  -10.788208|    0.824000|    0.012159|
|         840|   -8.552072|  -10.788925|    0.824000|    0.012159|
|         841|   -8.551334|  -10.789310|    0.824000|    0.012159|
|         842|   -8.550453|  -10.789382|    0.824000|    0.012159|
|         843|   -8.549484|  -10.789170|    0.824000|    0.012159|
|         844|   -8.548479|  -10.788704|    0.824000|    0.012159|
|         845|   -8.547486|  -10.788020|    0.824000|    0.012159|
|         846|   -8.546546|  -10.787158|    0.824000|    0.012159|
|         847|   -8.545697|  -10.786157|    0.824000|    0.012159|
|         848|   -8.544973|  -10.785059|    0.824000|    0.012159|
|         849|   -8.544400|  -10.783905|    0.824000|    0.012159|
|         850|   -8.544000|  -10.782733|    0.824000|    0.012159|
|         851|   -8.543793|  -10.781582|    0.824000|    0.012159|
|         852|   -8.543792|  -10.780485|    0.824000|    0.012159|
|         853|   -8.544006|  -10.779474|    0.824000|    0.012159|
|         854|   -8.544443|  -10.778579|    0.824000|    0.012159|
|         855|   -8.545106|  -10.777824|    0.824000|    0.012159|
|         856|   -8.545997|  -10.777231|    0.824000|    0.012159|
|         857|   -8.547113|  -10.776818|    0.824000|    0.012159|
|         858|   -8.548452|  -10.776601|    0.824000|    0.012159|
|         859|   -8.550009|  -10.776592|    0.824000|    0.012159|
|         860|   -8.551777|  -10.776799|    0.824000|    0.012159|
|         861|   -8.553748|  -10.777229|    0.824000|    0.012159|
|         862|   -8.555914|  -10.777886|    0.824000|    0.012159|
|         863|   -8.558264|  -10.778770|    0.824000|    0.012159|
|         864|   -8.560787|  -10.779880|    0.824000|    0.012159|
|         865|   -8.563470|  -10.781213|    0.824000|    0.012159|
|         866|   -8.566301|  -10.782764|    0.824000|    0.012159|
|         867|   -8.569264|  -10.784526|    0.824000|    0.012159|
|         868|   -8.572343|  -10.786488|    0.824000|    0.012159|
|         869|   -8.575522|  -10.788642|    0.824000|    0.012159|
|         870|   -8.578781|  -10.790975|    0.824000|    0.012159|
|         871|   -8.582100|  -10.793475|    0.824000|    0.012159|
|         872|   -8.585456|  -10.796125|    0.824000|    0.012159|
|         873|   -8.588827|  -10.798912|    0.824000|    0.012159|
|         874|   -8.592187|  -10.801818|    0.824000|    0.012159|
|         875|   -8.595508|  -10.804827|    0.824000|    0.012159|
|         876|   -8.598763|  -10.807921|    0.824000|    0.012159|
|         877|   -8.601923|  -10.811080|    0.824000|    0.012159|
|         878|   -8.604956|  -10.814288|    0.824000|    0.012159|
|         879|   -8.607832|  -10.817524|    0.824000|    0.012159|
|         880|   -8.610520|  -10.820769|    0.824000|    0.012159|
|         881|   -8.612990|  -10.824005|    0.824000|    0.012159|
|         882|   -8.615215|  -10.827214|    0.824000|    0.012159|
|         883|   -8.617167|  -10.830376|    0.824000|    0.012159|
|         884|   -8.618824|  -10.833475|    0.824000|    0.012159|
|         885|   -8.620166|  -10.836493|    0.824000|    0.012159|
|         886|   -8.621177|  -10.839415|    0.824000|    0.012159|
|         887|   -8.621849|  -10.842225|    0.824000|    0.012159|
|         888|   -8.622176|  -10.844910|    0.824000|    0.012159|
|         889|   -8.622159|  -10.847457|    0.824000|    0.012159|
|         890|   -8.621806|  -10.849855|    0.824000|    0.012159|
|         891|   -8.621131|  -10.852093|    0.824000|    0.012159|
|         892|   -8.620151|  -10.854164|    0.824000|    0.012159|
|         893|   -8.618891|  -10.856061|    0.824000|    0.012159|
|         894|   -8.617381|  -10.857778|    0.824000|    0.012159|
|         895|   -8.615652|  -10.859311|    0.824000|    0.012159|
|         896|   -8.613741|  -10.860659|    0.824000|    0.012159|
|         897|   -8.611687|  -10.861822|    0.824000|    0.012159|
|         898|   -8.609531|  -10.862799|    0.824000|    0.012159|
|         899|   -8.607312|  -10.863595|    0.824000|    0.012159|
|         900|   -8.605074|  -10.864214|    0.824000|    0.012159|
|         901|   -8.602856|  -10.864662|    0.824000|    0.012159|
|         902|   -8.600699|  -10.864946|    0.824000|    0.012159|
|         903|   -8.598641|  -10.865076|    0.824000|    0.012159|
|         904|   -8.596718|  -10.865060|    0.824000|    0.012159|
|         905|   -8.594965|  -10.864911|    0.824000|    0.012159|
|         906|   -8.593411|  -10.864641|    0.824000|    0.012159|
|         907|   -8.592088|  -10.864263|    0.824000|    0.012159|
|         908|   -8.591020|  -10.863791|    0.824000|    0.012159|
|         909|   -8.590229|  -10.863239|    0.824000|    0.012159|
|         910|   -8.589737|  -10.862622|    0.824000|    0.012159|
|         911|   -8.589559|  -10.861954|    0.824000|    0.012159|
|         912|   -8.589709|  -10.861251|    0.824000|    0.012159|
|         913|   -8.590197|  -10.860527|    0.824000|    0.012159|
|         914|   -8.591031|  -10.859796|    0.824000|    0.012159|
|         915|   -8.592215|  -10.859073|    0.824000|    0.012159|
|         916|   -8.593748|  -10.858371|    0.824000|    0.012159|
|         917|   -8.595628|  -10.857701|    0.824000|    0.012159|
|         918|   -8.597849|  -10.857077|    0.824000|    0.012159|
|         919|   -8.600401|  -10.856508|    0.824000|    0.012159|
|         920|   -8.603271|  -10.856005|    0.824000|    0.012159|
|         921|   -8.606440|  -10.855574|    0.824000|    0.012159|
|         922|   -8.609889|  -10.855225|    0.824000|    0.012159|
|         923|   -8.613594|  -10.854963|    0.824000|    0.012159|
|         924|   -8.617523|  -10.854793|    0.824000|    0.012159|
|         925|   -8.621646|  -10.854717|    0.824000|    0.012159|
|         926|   -8.625927|  -10.854739|    0.824000|    0.012159|
|         927|   -8.630323|  -10.854858|    0.824000|    0.012159|
|         928|   -8.634793|  -10.855074|    0.824000|    0.012159|
|         929|   -8.639290|  -10.855385|    0.824000|    0.012159|
|         930|   -8.643764|  -10.855786|    0.824000|    0.012159|
|         931|   -8.648167|  -10.856272|    0.824000|    0.012159|
|         932|   -8.652446|  -10.856837|    0.824000|    0.012159|
|         933|   -8.656548|  -10.857472|    0.824000|    0.012159|
|         934|   -8.660426|  -10.858168|    0.824000|    0.012159|
|         935|   -8.664030|  -10.858914|    0.824000|    0.012159|
|         936|   -8.667319|  -10.859697|    0.824000|    0.012159|
|         937|   -8.670251|  -10.860503|    0.824000|    0.012159|
|         938|   -8.672795|  -10.861319|    0.824000|    0.012159|
|         939|   -8.674928|  -10.862129|    0.824000|    0.012159|
|         940|   -8.676631|  -10.862916|    0.824000|    0.012159|
|         941|   -8.677897|  -10.863665|    0.824000|    0.012159|
|         942|   -8.678728|  -10.864357|    0.824000|    0.012159|
|         943|   -8.679134|  -10.864978|    0.824000|    0.012159|
|         944|   -8.679132|  -10.865509|    0.824000|    0.012159|
|         945|   -8.678752|  -10.865935|    0.824000|    0.012159|
|         946|   -8.678024|  -10.866243|    0.824000|    0.012159|
|         947|   -8.676989|  -10.866418|    0.824000|    0.012159|
|         948|   -8.675688|  -10.866449|    0.824000|    0.012159|
|         949|   -8.674170|  -10.866326|    0.824000|    0.012159|
|         950|   -8.672481|  -10.866042|    0.824000|    0.012159|
|         951|   -8.670670|  -10.865593|    0.824000|    0.012159|
|         952|   -8.668785|  -10.864975|    0.824000|    0.012159|
|         953|   -8.666874|  -10.864190|    0.824000|    0.012159|
|         954|   -8.664980|  -10.863240|    0.824000|    0.012159|
|         955|   -8.663148|  -10.862131|    0.824000|    0.012159|
[...]
|        4753|   -6.006613|   -7.911956|    0.824236|    0.012163|
|        4754|   -6.014070|   -7.916225|    0.824236|    0.012163|
|        4755|   -6.021456|   -7.920443|    0.824236|    0.012163|
|        4756|   -6.028712|   -7.924642|    0.824236|    0.012163|
|        4757|   -6.035778|   -7.928850|    0.824236|    0.012163|
|        4758|   -6.042598|   -7.933090|    0.824237|    0.012163|
|        4759|   -6.049122|   -7.937383|    0.824237|    0.012163|
|        4760|   -6.055305|   -7.941746|    0.824237|    0.012163|
|        4761|   -6.061112|   -7.946196|    0.824237|    0.012163|
|        4762|   -6.066515|   -7.950742|    0.824237|    0.012163|
|        4763|   -6.071496|   -7.955392|    0.824237|    0.012163|
|        4764|   -6.076048|   -7.960150|    0.824237|    0.012162|
|        4765|   -6.080173|   -7.965018|    0.824237|    0.012162|
|        4766|   -6.083884|   -7.969995|    0.824237|    0.012162|
|        4767|   -6.087204|   -7.975076|    0.824238|    0.012162|
|        4768|   -6.090163|   -7.980259|    0.824238|    0.012162|
|        4769|   -6.092799|   -7.985536|    0.824238|    0.012162|
|        4770|   -6.095155|   -7.990903|    0.824238|    0.012162|
|        4771|   -6.097277|   -7.996353|    0.824238|    0.012162|
|        4772|   -6.099215|   -8.001881|    0.824238|    0.012162|
|        4773|   -6.101019|   -8.007482|    0.824238|    0.012162|
|        4774|   -6.102740|   -8.013154|    0.824238|    0.012162|
|        4775|   -6.104425|   -8.018894|    0.824238|    0.012162|
|        4776|   -6.106118|   -8.024702|    0.824239|    0.012162|
|        4777|   -6.107862|   -8.030576|    0.824239|    0.012162|
|        4778|   -6.109693|   -8.036518|    0.824239|    0.012163|
|        4779|   -6.111642|   -8.042530|    0.824239|    0.012163|
|        4780|   -6.113736|   -8.048614|    0.824239|    0.012163|
|        4781|   -6.115995|   -8.054771|    0.824239|    0.012163|
|        4782|   -6.118432|   -8.061004|    0.824239|    0.012163|
|        4783|   -6.121055|   -8.067313|    0.824240|    0.012163|
|        4784|   -6.123866|   -8.073698|    0.824240|    0.012163|
|        4785|   -6.126860|   -8.080160|    0.824240|    0.012163|
|        4786|   -6.130026|   -8.086700|    0.824240|    0.012163|
|        4787|   -6.133347|   -8.093313|    0.824240|    0.012163|
|        4788|   -6.136799|   -8.099993|    0.824240|    0.012163|
|        4789|   -6.140356|   -8.106730|    0.824241|    0.012163|
|        4790|   -6.143987|   -8.113513|    0.824241|    0.012163|
|        4791|   -6.147658|   -8.120330|    0.824241|    0.012164|
|        4792|   -6.151330|   -8.127171|    0.824241|    0.012164|
|        4793|   -6.154965|   -8.134024|    0.824241|    0.012164|
|        4794|   -6.158523|   -8.140880|    0.824241|    0.012164|
|        4795|   -6.161966|   -8.147729|    0.824241|    0.012164|
|        4796|   -6.165259|   -8.154564|    0.824242|    0.012164|
|        4797|   -6.168370|   -8.161377|    0.824242|    0.012164|
|        4798|   -6.171271|   -8.168166|    0.824242|    0.012164|
|        4799|   -6.173942|   -8.174928|    0.824242|    0.012164|
|        4800|   -6.176368|   -8.181660|    0.824242|    0.012164|
|        4801|   -6.178543|   -8.188364|    0.824242|    0.012164|
|        4802|   -6.180469|   -8.195041|    0.824242|    0.012164|
|        4803|   -6.182156|   -8.201695|    0.824243|    0.012165|
|        4804|   -6.183619|   -8.208326|    0.824243|    0.012165|
|        4805|   -6.184885|   -8.214942|    0.824243|    0.012165|
|        4806|   -6.185982|   -8.221549|    0.824243|    0.012165|
|        4807|   -6.186946|   -8.228156|    0.824243|    0.012165|
|        4808|   -6.187816|   -8.234772|    0.824243|    0.012165|
|        4809|   -6.188634|   -8.241406|    0.824243|    0.012165|
|        4810|   -6.189443|   -8.248067|    0.824243|    0.012165|
|        4811|   -6.190285|   -8.254765|    0.824243|    0.012165|
|        4812|   -6.191205|   -8.261510|    0.824243|    0.012165|
|        4813|   -6.192243|   -8.268309|    0.824244|    0.012165|
|        4814|   -6.193436|   -8.275171|    0.824244|    0.012165|
|        4815|   -6.194821|   -8.282102|    0.824244|    0.012165|
|        4816|   -6.196429|   -8.289113|    0.824244|    0.012165|
|        4817|   -6.198288|   -8.296206|    0.824244|    0.012165|
|        4818|   -6.200421|   -8.303385|    0.824244|    0.012165|
|        4819|   -6.202847|   -8.310650|    0.824244|    0.012165|
|        4820|   -6.205581|   -8.318002|    0.824244|    0.012165|
|        4821|   -6.208631|   -8.325438|    0.824244|    0.012165|
|        4822|   -6.212003|   -8.332954|    0.824244|    0.012165|
|        4823|   -6.215697|   -8.340546|    0.824244|    0.012165|
|        4824|   -6.219706|   -8.348205|    0.824244|    0.012165|
|        4825|   -6.224022|   -8.355924|    0.824244|    0.012165|
|        4826|   -6.228629|   -8.363691|    0.824244|    0.012165|
|        4827|   -6.233509|   -8.371496|    0.824244|    0.012165|
|        4828|   -6.238636|   -8.379325|    0.824244|    0.012165|
|        4829|   -6.243983|   -8.387165|    0.824244|    0.012165|
|        4830|   -6.249516|   -8.395001|    0.824244|    0.012165|
|        4831|   -6.255198|   -8.402820|    0.824244|    0.012165|
|        4832|   -6.260989|   -8.410606|    0.824244|    0.012165|
|        4833|   -6.266845|   -8.418346|    0.824244|    0.012165|
|        4834|   -6.272720|   -8.426024|    0.824244|    0.012165|
|        4835|   -6.278567|   -8.433628|    0.824244|    0.012165|
|        4836|   -6.284338|   -8.441145|    0.824244|    0.012165|
|        4837|   -6.289983|   -8.448564|    0.824244|    0.012165|
|        4838|   -6.295458|   -8.455876|    0.824244|    0.012165|
|        4839|   -6.300717|   -8.463071|    0.824244|    0.012165|
|        4840|   -6.305720|   -8.470142|    0.824244|    0.012164|
|        4841|   -6.310431|   -8.477085|    0.824244|    0.012164|
|        4842|   -6.314820|   -8.483892|    0.824244|    0.012164|
|        4843|   -6.318863|   -8.490561|    0.824244|    0.012164|
|        4844|   -6.322542|   -8.497088|    0.824244|    0.012164|
|        4845|   -6.325848|   -8.503469|    0.824244|    0.012164|
|        4846|   -6.328777|   -8.509702|    0.824244|    0.012164|
|        4847|   -6.331332|   -8.515778|    0.824244|    0.012164|
|        4848|   -6.333524|   -8.521689|    0.824244|    0.012164|
|        4849|   -6.335367|   -8.527423|    0.824244|    0.012164|
|        4850|   -6.336880|   -8.532965|    0.824244|    0.012164|
|        4851|   -6.338085|   -8.538299|    0.824245|    0.012164|
|        4852|   -6.339007|   -8.543402|    0.824245|    0.012163|
|        4853|   -6.339672|   -8.548251|    0.824245|    0.012163|
|        4854|   -6.340106|   -8.552819|    0.824245|    0.012163|
|        4855|   -6.340335|   -8.557076|    0.824245|    0.012163|
|        4856|   -6.340384|   -8.560990|    0.824245|    0.012163|
|        4857|   -6.340276|   -8.564528|    0.824245|    0.012163|
|        4858|   -6.340031|   -8.567662|    0.824246|    0.012163|
|        4859|   -6.339668|   -8.570366|    0.824246|    0.012163|
|        4860|   -6.339205|   -8.572618|    0.824246|    0.012163|
|        4861|   -6.338655|   -8.574400|    0.824246|    0.012163|
|        4862|   -6.338029|   -8.575701|    0.824246|    0.012162|
|        4863|   -6.337340|   -8.576515|    0.824247|    0.012162|
|        4864|   -6.336594|   -8.576846|    0.824247|    0.012162|
|        4865|   -6.335798|   -8.576701|    0.824247|    0.012162|
|        4866|   -6.334959|   -8.576100|    0.824247|    0.012162|
|        4867|   -6.334082|   -8.575066|    0.824247|    0.012162|
|        4868|   -6.333169|   -8.573630|    0.824248|    0.012162|
|        4869|   -6.332226|   -8.571830|    0.824248|    0.012162|
|        4870|   -6.331255|   -8.569705|    0.824248|    0.012162|
|        4871|   -6.330260|   -8.567302|    0.824248|    0.012162|
|        4872|   -6.329243|   -8.564664|    0.824248|    0.012162|
|        4873|   -6.328210|   -8.561839|    0.824249|    0.012162|
|        4874|   -6.327163|   -8.558872|    0.824249|    0.012162|
|        4875|   -6.326107|   -8.555805|    0.824249|    0.012161|
|        4876|   -6.325047|   -8.552680|    0.824249|    0.012161|
|        4877|   -6.323988|   -8.549531|    0.824249|    0.012161|
|        4878|   -6.322935|   -8.546392|    0.824250|    0.012161|
|        4879|   -6.321896|   -8.543292|    0.824250|    0.012161|
|        4880|   -6.320877|   -8.540253|    0.824250|    0.012161|
|        4881|   -6.319886|   -8.537296|    0.824250|    0.012161|
|        4882|   -6.318932|   -8.534436|    0.824250|    0.012161|
|        4883|   -6.318024|   -8.531684|    0.824251|    0.012161|
|        4884|   -6.317171|   -8.529048|    0.824251|    0.012161|
|        4885|   -6.316385|   -8.526534|    0.824251|    0.012161|
|        4886|   -6.315677|   -8.524142|    0.824251|    0.012161|
|        4887|   -6.315059|   -8.521872|    0.824251|    0.012161|
|        4888|   -6.314544|   -8.519723|    0.824251|    0.012161|
|        4889|   -6.314146|   -8.517691|    0.824251|    0.012161|
|        4890|   -6.313877|   -8.515771|    0.824252|    0.012161|
|        4891|   -6.313754|   -8.513960|    0.824252|    0.012161|
|        4892|   -6.313789|   -8.512251|    0.824252|    0.012161|
|        4893|   -6.313997|   -8.510642|    0.824252|    0.012161|
|        4894|   -6.314394|   -8.509126|    0.824252|    0.012161|
|        4895|   -6.314993|   -8.507700|    0.824252|    0.012161|
|        4896|   -6.315807|   -8.506360|    0.824252|    0.012161|
|        4897|   -6.316850|   -8.505105|    0.824252|    0.012161|
|        4898|   -6.318133|   -8.503932|    0.824252|    0.012161|
|        4899|   -6.319668|   -8.502840|    0.824252|    0.012161|
|        4900|   -6.321463|   -8.501830|    0.824253|    0.012161|
|        4901|   -6.323525|   -8.500902|    0.824253|    0.012161|
|        4902|   -6.325861|   -8.500056|    0.824253|    0.012161|
|        4903|   -6.328474|   -8.499292|    0.824253|    0.012161|
|        4904|   -6.331365|   -8.498613|    0.824253|    0.012162|
|        4905|   -6.334533|   -8.498018|    0.824253|    0.012162|
|        4906|   -6.337972|   -8.497509|    0.824253|    0.012162|
|        4907|   -6.341676|   -8.497087|    0.824253|    0.012162|
|        4908|   -6.345633|   -8.496751|    0.824253|    0.012162|
|        4909|   -6.349830|   -8.496502|    0.824253|    0.012162|
|        4910|   -6.354249|   -8.496340|    0.824253|    0.012162|
|        4911|   -6.358869|   -8.496264|    0.824253|    0.012162|
|        4912|   -6.363664|   -8.496272|    0.824253|    0.012162|
|        4913|   -6.368607|   -8.496364|    0.824253|    0.012162|
|        4914|   -6.373666|   -8.496538|    0.824253|    0.012162|
|        4915|   -6.378804|   -8.496790|    0.824253|    0.012162|
|        4916|   -6.383983|   -8.497120|    0.824253|    0.012162|
|        4917|   -6.389162|   -8.497522|    0.824253|    0.012162|
|        4918|   -6.394298|   -8.497996|    0.824253|    0.012163|
|        4919|   -6.399345|   -8.498536|    0.824253|    0.012163|
|        4920|   -6.404258|   -8.499141|    0.824253|    0.012163|
|        4921|   -6.408990|   -8.499805|    0.824253|    0.012163|
|        4922|   -6.413498|   -8.500526|    0.824253|    0.012163|
|        4923|   -6.417740|   -8.501299|    0.824253|    0.012163|
|        4924|   -6.421676|   -8.502120|    0.824252|    0.012163|
|        4925|   -6.425271|   -8.502987|    0.824252|    0.012163|
|        4926|   -6.428497|   -8.503893|    0.824252|    0.012163|
|        4927|   -6.431331|   -8.504836|    0.824252|    0.012163|
|        4928|   -6.433757|   -8.505811|    0.824252|    0.012163|
|        4929|   -6.435766|   -8.506813|    0.824252|    0.012163|
|        4930|   -6.437357|   -8.507837|    0.824252|    0.012163|
|        4931|   -6.438537|   -8.508879|    0.824252|    0.012164|
|        4932|   -6.439319|   -8.509933|    0.824252|    0.012164|
|        4933|   -6.439725|   -8.510993|    0.824252|    0.012164|
|        4934|   -6.439779|   -8.512052|    0.824252|    0.012164|
|        4935|   -6.439514|   -8.513104|    0.824251|    0.012164|
|        4936|   -6.438964|   -8.514143|    0.824251|    0.012164|
|        4937|   -6.438166|   -8.515163|    0.824251|    0.012164|
|        4938|   -6.437162|   -8.516158|    0.824251|    0.012164|
|        4939|   -6.435990|   -8.517122|    0.824251|    0.012164|
|        4940|   -6.434692|   -8.518047|    0.824251|    0.012164|
|        4941|   -6.433307|   -8.518928|    0.824251|    0.012164|
|        4942|   -6.431874|   -8.519761|    0.824251|    0.012164|
|        4943|   -6.430430|   -8.520537|    0.824251|    0.012164|
|        4944|   -6.429008|   -8.521252|    0.824250|    0.012164|
|        4945|   -6.427641|   -8.521899|    0.824250|    0.012164|
|        4946|   -6.426358|   -8.522474|    0.824250|    0.012164|
|        4947|   -6.425184|   -8.522971|    0.824250|    0.012164|
|        4948|   -6.424143|   -8.523388|    0.824250|    0.012164|
|        4949|   -6.423256|   -8.523721|    0.824250|    0.012164|
|        4950|   -6.422540|   -8.523968|    0.824250|    0.012164|
|        4951|   -6.422010|   -8.524127|    0.824250|    0.012164|
|        4952|   -6.421680|   -8.524199|    0.824250|    0.012164|
|        4953|   -6.421559|   -8.524183|    0.824250|    0.012164|
|        4954|   -6.421656|   -8.524079|    0.824250|    0.012164|
|        4955|   -6.421977|   -8.523891|    0.824250|    0.012164|
|        4956|   -6.422525|   -8.523619|    0.824249|    0.012164|
|        4957|   -6.423304|   -8.523266|    0.824249|    0.012164|
|        4958|   -6.424315|   -8.522835|    0.824249|    0.012164|
|        4959|   -6.425556|   -8.522331|    0.824249|    0.012164|
|        4960|   -6.427028|   -8.521756|    0.824249|    0.012164|
|        4961|   -6.428726|   -8.521114|    0.824249|    0.012164|
|        4962|   -6.430648|   -8.520409|    0.824249|    0.012164|
|        4963|   -6.432789|   -8.519645|    0.824250|    0.012149|
+-----------------------------------------------------------------------+
|Fixed CL Mode (Finite Difference)       |Value                         |
+-----------------------------------------------------------------------+
|Delta CL / Delta AoA                    |0.249511                      |
|Delta CD / Delta CL                     |0.0198447                     |
|Delta CMz / Delta CL                    |0.0164883                     |
+-----------------------------------------------------------------------+
Writing Flow Meta-Data file: flow.meta

--------------------------- Finalizing Solver ---------------------------
Deleted CNumerics container.
Deleted CIntegration container.
Deleted CSolver container.
Deleted CIteration container.
Deleted CInterface container.
Deleted CGeometry container.
Deleted CFreeFormDefBox class.
Deleted CSurfaceMovement class.
Deleted CVolumetricMovement class.
Deleted CConfig container.
Deleted nInst container.
Deleted COutput class.
-------------------------------------------------------------------------

------------------------- Exit Success (SU2_CFD) ------------------------


-------------------------------------------------------------------------
|    ___ _   _ ___                                                      |
|   / __| | | |_  )   Release 8.0.0 "Harrier"                           |
|   \__ \ |_| |/ /                                                      |
|   |___/\___//___|   Suite (Solution Exporting Code)                   |
|                                                                       |
-------------------------------------------------------------------------
| SU2 Project Website: https://su2code.github.io                        |
|                                                                       |
| The SU2 Project is maintained by the SU2 Foundation                   |
| (http://su2foundation.org)                                            |
-------------------------------------------------------------------------
| Copyright 2012-2023, SU2 Contributors                                 |
|                                                                       |
| SU2 is free software; you can redistribute it and/or                  |
| modify it under the terms of the GNU Lesser General Public            |
| License as published by the Free Software Foundation; either          |
| version 2.1 of the License, or (at your option) any later version.    |
|                                                                       |
| SU2 is distributed in the hope that it will be useful,                |
| but WITHOUT ANY WARRANTY; without even the implied warranty of        |
| MERCHANTABILITY or FITNESS FOR A PARTICULAR PURPOSE. See the GNU      |
| Lesser General Public License for more details.                       |
|                                                                       |
| You should have received a copy of the GNU Lesser General Public      |
| License along with SU2. If not, see <http://www.gnu.org/licenses/>.   |
-------------------------------------------------------------------------

----------------- Physical Case Definition ( Zone 0 ) -------------------
Input mesh file name: mesh_RAE2822_turb_deform.su2

-------------------- Output Information ( Zone 0 ) ----------------------
The tabular file format is CSV (.csv).
Flow variables file name: flow.

------------- Config File Boundary Information ( Zone 0 ) ---------------
+-----------------------------------------------------------------------+
|                        Marker Type|                        Marker Name|
+-----------------------------------------------------------------------+
|                          Far-field|                           FARFIELD|
+-----------------------------------------------------------------------+
|                     Heat flux wall|                            AIRFOIL|
+-----------------------------------------------------------------------+
Two dimensional problem.
13937 grid points before partitioning.
22842 volume elements before partitioning.
2 surface markers.
192 boundary elements in index 0 (Marker = AIRFOIL).
40 boundary elements in index 1 (Marker = FARFIELD).
Executing the partitioning functions.
Building the graph adjacency structure.
Calling ParMETIS... graph partitioning complete (831 edge cuts).
Distributing ParMETIS coloring.
Rebalancing vertices.
Rebalancing volume element connectivity.
Rebalancing markers and surface elements.
14875 vertices including ghost points. 
23674 interior elements including halo cells. 
18780 triangles.
4894 quadrilaterals.
Establishing MPI communication patterns.
Identify vertices.
Storing a mapping from global to local point index.

------------------------- Solution Postprocessing -----------------------
Reading and storing the solution from restart_flow.
Volume output fields: COORDINATES, SOLUTION
  Info: Ignoring the following screen output fields:
  RMS_DENSITY, RMS_NU_TILDE, LIFT, DRAG
Screen output fields: INNER_ITER
  Info: Ignoring the following history output groups:
  RMS_RES, AERO_COEFF
History output group(s): ITER
Warning: No (valid) fields chosen for convergence monitoring. Convergence monitoring inactive.
Warning: No (valid) fields chosen for time convergence monitoring. Time convergence monitoring inactive.
|Paraview                           |flow.vtu                           |
|Paraview surface                   |surface_flow.vtu                   |
|CSV file                           |surface_flow.csv                   |

------------------------- Finalize Solver -------------------------
Deleted CGeometry container.
Deleted CSolver class.
Deleted CConfig container.
Deleted COutput class.

Completed in 0.016769 seconds on 6 cores.

------------------------- Exit Success (SU2_SOL) ------------------------

