
-------------------------------------------------------------------------
|    ___ _   _ ___                                                      |
|   / __| | | |_  )   Release 8.0.0 "Harrier"                           |
|   \__ \ |_| |/ /                                                      |
|   |___/\___//___|   Suite (Computational Fluid Dynamics Code)         |
|                                                                       |
-------------------------------------------------------------------------
| SU2 Project Website: https://su2code.github.io                        |
|                                                                       |
| The SU2 Project is maintained by the SU2 Foundation                   |
| (http://su2foundation.org)                                            |
-------------------------------------------------------------------------
| Copyright 2012-2023, SU2 Contributors                                 |
|                                                                       |
| SU2 is free software; you can redistribute it and/or                  |
| modify it under the terms of the GNU Lesser General Public            |
| License as published by the Free Software Foundation; either          |
| version 2.1 of the License, or (at your option) any later version.    |
|                                                                       |
| SU2 is distributed in the hope that it will be useful,                |
| but WITHOUT ANY WARRANTY; without even the implied warranty of        |
| MERCHANTABILITY or FITNESS FOR A PARTICULAR PURPOSE. See the GNU      |
| Lesser General Public License for more details.                       |
|                                                                       |
| You should have received a copy of the GNU Lesser General Public      |
| License along with SU2. If not, see <http://www.gnu.org/licenses/>.   |
-------------------------------------------------------------------------

Parsing config file for zone 0

----------------- Physical Case Definition ( Zone 0 ) -------------------
Compressible RANS equations.
Turbulence model: Spalart-Allmaras-noft2
Hybrid RANS/LES: No Hybrid RANS/LES
Mach number: 0.734.
Angle of attack (AoA): 2.31 deg, and angle of sideslip (AoS): 0 deg.
Reynolds number: 6.5e+06. Reference length 1.
Fixed CL mode, target value: 0.824.
Reading and writing binary SU2 native restart files.
Read flow solution from: solution_flow.dat.
Dimensional simulation.
The reference area is 1 m^2.
The semi-span will be computed using the max y(3D) value.
The reference length is 1 m.
Reference origin for moment evaluation is (0.25, 0, 0).
Surface(s) where the force coefficients are evaluated: AIRFOIL.

Surface(s) plotted in the output file: AIRFOIL.
Surface(s) affected by the design variables: AIRFOIL.
Input mesh file name: mesh_RAE2822_turb_deform.su2

--------------- Space Numerical Integration ( Zone 0 ) ------------------
Jameson-Schmidt-Turkel scheme (2nd order in space) for the flow inviscid terms.
JST viscous coefficients (2nd & 4th): 0.5, 0.02.
The method includes a grid stretching correction (p = 0.3).
Scalar upwind solver for the turbulence model.
First order integration in space.
Average of gradients with correction (viscous flow terms).
Average of gradients with correction (viscous turbulence terms).
Gradient for viscous and source terms: inverse-distance weighted Least-Squares.

--------------- Time Numerical Integration  ( Zone 0 ) ------------------
Local time stepping (steady state simulation).
Euler implicit method for the flow equations.
FGMRES is used for solving the linear system.
Using a ILU(0) preconditioning.
Convergence criteria of the linear solver: 1e-06.
Max number of linear iterations: 10.
No CFL adaptation.
Courant-Friedrichs-Lewy number:       10
Euler implicit time integration for the turbulence model.

------------------ Convergence Criteria  ( Zone 0 ) ---------------------
Maximum number of solver subiterations: 5500.
Begin convergence monitoring at iteration 10.
Residual minimum value: 1e-12.
Cauchy series min. value: 1e-06.
Number of Cauchy elements: 100.
Begin windowed time average at iteration 0.

-------------------- Output Information ( Zone 0 ) ----------------------
File writing frequency: 
+------------------------------------+
|                     File| Frequency|
+------------------------------------+
|                  RESTART|     10000|
|                 PARAVIEW|     10000|
|         SURFACE_PARAVIEW|     10000|
|              SURFACE_CSV|     10000|
+------------------------------------+
Writing the convergence history file every 1 inner iterations.
Writing the screen convergence history every 1 inner iterations.
The tabular file format is CSV (.csv).
Convergence history file name: history_direct.
Forces breakdown file name: forces_breakdown.dat.
Surface file name: surface_flow.
Volume file name: flow.
Restart file name: restart_flow.dat.

------------- Config File Boundary Information ( Zone 0 ) ---------------
+-----------------------------------------------------------------------+
|                        Marker Type|                        Marker Name|
+-----------------------------------------------------------------------+
|                          Far-field|                           FARFIELD|
+-----------------------------------------------------------------------+
|                     Heat flux wall|                            AIRFOIL|
+-----------------------------------------------------------------------+

-------------------- Output Preprocessing ( Zone 0 ) --------------------

WARNING: SURFACE_PRESSURE_DROP can only be computed for at least 2 surfaces (outlet, inlet, ...)

Screen output fields: INNER_ITER, RMS_DENSITY, RMS_NU_TILDE, LIFT, DRAG
History output group(s): ITER, RMS_RES, AERO_COEFF
Convergence field(s): RMS_DENSITY
Warning: No (valid) fields chosen for time convergence monitoring. Time convergence monitoring inactive.
Volume output fields: COORDINATES, SOLUTION, PRIMITIVE

------------------- Geometry Preprocessing ( Zone 0 ) -------------------
Two dimensional problem.
13937 grid points before partitioning.
22842 volume elements before partitioning.
2 surface markers.
192 boundary elements in index 0 (Marker = AIRFOIL).
40 boundary elements in index 1 (Marker = FARFIELD).
Executing the partitioning functions.
Building the graph adjacency structure.
Calling ParMETIS... graph partitioning complete (831 edge cuts).
Distributing ParMETIS coloring.
Rebalancing vertices.
Rebalancing volume element connectivity.
Rebalancing markers and surface elements.
14875 vertices including ghost points. 
23674 interior elements including halo cells. 
18780 triangles.
4894 quadrilaterals.
Establishing MPI communication patterns.
Setting point connectivity.
Renumbering points (Reverse Cuthill McKee Ordering).
Recomputing point connectivity.
Setting element connectivity.
Checking the numerical grid orientation.
All volume elements are correctly orientend.
All surface elements are correctly orientend.
Identifying edges and vertices.
Setting the control volume structure.
Area of the computational grid: 32209.9.
Searching for the closest normal neighbors to the surfaces.
Storing a mapping from global to local point index.
Compute the surface curvature.
Max K: 203.872. Mean K: 8.29499. Standard deviation K: 26.8308.
Checking for periodicity.
Computing mesh quality statistics for the dual control volumes.
+--------------------------------------------------------------+
|           Mesh Quality Metric|        Minimum|        Maximum|
+--------------------------------------------------------------+
|    Orthogonality Angle (deg.)|        74.5115|             90|
|     CV Face Area Aspect Ratio|        1.00101|        3358.96|
|           CV Sub-Volume Ratio|        1.00066|        1219.23|
+--------------------------------------------------------------+
Finding max control volume width.
Communicating number of neighbors.
Wetted area = 2.02142 m.
Area projection in the x-plane = 0.127758 m, y-plane = 0.995873 m.
Max. coordinate in the x-direction = 1 m, y-direction = 0.0616 m.
Min. coordinate in the x-direction = 0 m, y-direction = -0.0624444 m.
Computing wall distances.

-------------------- Solver Preprocessing ( Zone 0 ) --------------------
WARNING: AoA in the solution file (2.76818 deg.) +
         AoA offset in mesh file (0 deg.) = 2.76818 deg.
WARNING: SU2 will use the dCD/dCL provided in the direct solution file: 0.0193007.
WARNING: SU2 will use the dCMz/dCL provided in the direct solution file: 0.00558367.
Viscous flow: Computing pressure using the ideal gas law
based on the free-stream temperature and a density computed
from the Reynolds number.
Force coefficients computed using free-stream values.

-- Models:
+------------------------------------------------------------------------------+
|          Viscosity Model|        Conductivity Model|              Fluid Model|
+------------------------------------------------------------------------------+
|               SUTHERLAND|          CONSTANT_PRANDTL|             STANDARD_AIR|
+------------------------------------------------------------------------------+
-- Fluid properties:
+------------------------------------------------------------------------------+
|                  Name|    Dim. value|    Ref. value|      Unit|Non-dim. value|
+------------------------------------------------------------------------------+
|        Ref. Viscosity|     1.716e-05|             1|   N.s/m^2|     1.716e-05|
|      Sutherland Temp.|        273.15|             1|         K|        273.15|
|     Sutherland Const.|         110.4|             1|         K|         110.4|
+------------------------------------------------------------------------------+
|        Prandtl (Lam.)|             -|             -|         -|          0.71|
|       Prandtl (Turb.)|             -|             -|         -|           0.9|
+------------------------------------------------------------------------------+
|          Gas Constant|       287.058|             1|  N.m/kg.K|       287.058|
|      Spec. Heat Ratio|             -|             -|         -|           1.4|
+------------------------------------------------------------------------------+
-- Initial and free-stream conditions:
+------------------------------------------------------------------------------+
|                  Name|    Dim. value|    Ref. value|      Unit|Non-dim. value|
+------------------------------------------------------------------------------+
|       Static Pressure|         38515|             1|        Pa|         38515|
|               Density|      0.465631|             1|    kg/m^3|      0.465631|
|           Temperature|        288.15|             1|         K|        288.15|
|          Total Energy|        237984|             1|   m^2/s^2|        237984|
|            Velocity-X|       249.487|             1|       m/s|       249.487|
|            Velocity-Y|       12.0631|             1|       m/s|       12.0631|
|    Velocity Magnitude|       249.778|             1|       m/s|       249.778|
+------------------------------------------------------------------------------+
|             Viscosity|    1.7893e-05|             1|   N.s/m^2|    1.7893e-05|
|          Conductivity|             -|             1|   W/m^2.K|             -|
|     Turb. Kin. Energy|       233.959|             1|   m^2/s^2|       233.959|
|     Spec. Dissipation|        608834|             1|       1/s|        608834|
+------------------------------------------------------------------------------+
|           Mach Number|             -|             -|         -|         0.734|
|       Reynolds Number|             -|             -|         -|       6.5e+06|
+------------------------------------------------------------------------------+
Initialize Jacobian structure (Navier-Stokes). MG level: 0.
Initialize Jacobian structure (SA model).

------------------- Numerics Preprocessing ( Zone 0 ) -------------------

----------------- Integration Preprocessing ( Zone 0 ) ------------------

------------------- Iteration Preprocessing ( Zone 0 ) ------------------
Euler/Navier-Stokes/RANS fluid iteration.

------------------------------ Begin Solver -----------------------------

Simulation Run using the Single-zone Driver
WARNING: SU2 was not compiled for an AVX-capable architecture. Performance could be better,
         see https://su2code.github.io/docs_v7/Build-SU2-Linux-MacOS/#compiler-optimizations
+----------------------------------------------------------------+
|  Inner_Iter|    rms[Rho]|     rms[nu]|          CL|          CD|
+----------------------------------------------------------------+
|           0|   -4.536620|   -5.906312|    0.824207|    0.012067|
|           1|   -4.595525|   -6.015234|    0.824315|    0.012119|
|           2|   -4.658763|   -6.146849|    0.824343|    0.012147|
|           3|   -4.704346|   -6.301533|    0.824323|    0.012158|
|           4|   -4.731664|   -6.470479|    0.824290|    0.012159|
|           5|   -4.745648|   -6.601261|    0.824262|    0.012157|
|           6|   -4.750848|   -6.621814|    0.824248|    0.012155|
|           7|   -4.750935|   -6.580677|    0.824248|    0.012156|
|           8|   -4.748525|   -6.543038|    0.824258|    0.012160|
|           9|   -4.744835|   -6.518328|    0.824274|    0.012166|
|          10|   -4.739901|   -6.496871|    0.824295|    0.012175|
|          11|   -4.733320|   -6.471110|    0.824319|    0.012185|
|          12|   -4.724913|   -6.442073|    0.824344|    0.012196|
|          13|   -4.714952|   -6.415841|    0.824368|    0.012208|
|          14|   -4.704030|   -6.397840|    0.824390|    0.012221|
|          15|   -4.692827|   -6.390647|    0.824409|    0.012234|
|          16|   -4.681954|   -6.394374|    0.824422|    0.012246|
|          17|   -4.671923|   -6.407433|    0.824430|    0.012258|
|          18|   -4.663169|   -6.426853|    0.824430|    0.012269|
|          19|   -4.656074|   -6.448425|    0.824422|    0.012280|
|          20|   -4.650947|   -6.467165|    0.824407|    0.012289|
|          21|   -4.647980|   -6.478753|    0.824384|    0.012296|
|          22|   -4.647192|   -6.481493|    0.824354|    0.012303|
|          23|   -4.648403|   -6.477129|    0.824316|    0.012307|
|          24|   -4.651241|   -6.469570|    0.824273|    0.012310|
|          25|   -4.655188|   -6.462809|    0.824225|    0.012312|
|          26|   -4.659665|   -6.459540|    0.824174|    0.012311|
|          27|   -4.664115|   -6.460884|    0.824120|    0.012310|
|          28|   -4.668076|   -6.466578|    0.824064|    0.012306|
|          29|   -4.671217|   -6.475322|    0.824009|    0.012302|
|          30|   -4.673340|   -6.485200|    0.823954|    0.012295|
|          31|   -4.674353|   -6.494182|    0.823900|    0.012288|
|          32|   -4.674241|   -6.500723|    0.823848|    0.012278|
|          33|   -4.673053|   -6.504229|    0.823799|    0.012268|
|          34|   -4.670895|   -6.505154|    0.823753|    0.012256|
|          35|   -4.667935|   -6.504707|    0.823709|    0.012243|
|          36|   -4.664394|   -6.504352|    0.823668|    0.012229|
|          37|   -4.660521|   -6.505392|    0.823631|    0.012214|
|          38|   -4.656569|   -6.508758|    0.823596|    0.012198|
|          39|   -4.652751|   -6.514949|    0.823564|    0.012182|
|          40|   -4.649219|   -6.524060|    0.823534|    0.012166|
|          41|   -4.646047|   -6.535822|    0.823508|    0.012149|
|          42|   -4.643237|   -6.549630|    0.823484|    0.012133|
|          43|   -4.640726|   -6.564552|    0.823463|    0.012117|
|          44|   -4.638411|   -6.579363|    0.823444|    0.012101|
|          45|   -4.636164|   -6.592628|    0.823428|    0.012086|
|          46|   -4.633858|   -6.602883|    0.823415|    0.012071|
|          47|   -4.631374|   -6.608930|    0.823405|    0.012057|
|          48|   -4.628615|   -6.610171|    0.823398|    0.012044|
|          49|   -4.625506|   -6.606778|    0.823393|    0.012032|
|          50|   -4.621998|   -6.599676|    0.823392|    0.012020|
|          51|   -4.618067|   -6.590257|    0.823395|    0.012009|
|          52|   -4.613710|   -6.580036|    0.823400|    0.011998|
|          53|   -4.608944|   -6.570356|    0.823409|    0.011989|
|          54|   -4.603799|   -6.562254|    0.823422|    0.011979|
|          55|   -4.598324|   -6.556425|    0.823438|    0.011970|
|          56|   -4.592573|   -6.553245|    0.823457|    0.011962|
|          57|   -4.586605|   -6.552831|    0.823480|    0.011954|
|          58|   -4.580483|   -6.555076|    0.823505|    0.011946|
|          59|   -4.574261|   -6.559712|    0.823534|    0.011939|
|          60|   -4.567991|   -6.566351|    0.823565|    0.011933|
|          61|   -4.561714|   -6.574532|    0.823598|    0.011926|
|          62|   -4.555463|   -6.583765|    0.823633|    0.011920|
|          63|   -4.549264|   -6.593575|    0.823669|    0.011915|
|          64|   -4.543138|   -6.603534|    0.823705|    0.011910|
|          65|   -4.537101|   -6.613284|    0.823742|    0.011906|
|          66|   -4.531173|   -6.622544|    0.823779|    0.011902|
|          67|   -4.525371|   -6.631105|    0.823814|    0.011899|
|          68|   -4.519716|   -6.638815|    0.823848|    0.011896|
|          69|   -4.514229|   -6.645574|    0.823881|    0.011893|
|          70|   -4.508932|   -6.651324|    0.823911|    0.011891|
|          71|   -4.503847|   -6.656055|    0.823940|    0.011889|
|          72|   -4.498991|   -6.659804|    0.823965|    0.011888|
|          73|   -4.494375|   -6.662651|    0.823988|    0.011887|
|          74|   -4.490005|   -6.664694|    0.824009|    0.011886|
|          75|   -4.485879|   -6.666043|    0.824027|    0.011885|
|          76|   -4.481987|   -6.666797|    0.824042|    0.011885|
|          77|   -4.478312|   -6.667033|    0.824055|    0.011885|
|          78|   -4.474832|   -6.666791|    0.824066|    0.011885|
|          79|   -4.471522|   -6.666074|    0.824075|    0.011885|
|          80|   -4.468357|   -6.664868|    0.824083|    0.011885|
|          81|   -4.465316|   -6.663154|    0.824089|    0.011886|
|          82|   -4.462384|   -6.660953|    0.824094|    0.011886|
|          83|   -4.459552|   -6.658327|    0.824098|    0.011887|
|          84|   -4.456824|   -6.655398|    0.824101|    0.011888|
|          85|   -4.454213|   -6.652333|    0.824104|    0.011889|
|          86|   -4.451743|   -6.649340|    0.824106|    0.011891|
|          87|   -4.449446|   -6.646638|    0.824108|    0.011892|
|          88|   -4.447361|   -6.644432|    0.824111|    0.011894|
|          89|   -4.445530|   -6.642901|    0.824113|    0.011896|
|          90|   -4.443996|   -6.642173|    0.824116|    0.011899|
|          91|   -4.442801|   -6.642328|    0.824119|    0.011902|
|          92|   -4.441980|   -6.643393|    0.824123|    0.011905|
|          93|   -4.441563|   -6.645345|    0.824127|    0.011909|
|          94|   -4.441571|   -6.648123|    0.824132|    0.011912|
|          95|   -4.442014|   -6.651635|    0.824137|    0.011917|
|          96|   -4.442892|   -6.655768|    0.824143|    0.011921|
|          97|   -4.444193|   -6.660397|    0.824149|    0.011926|
|          98|   -4.445895|   -6.665398|    0.824156|    0.011931|
|          99|   -4.447962|   -6.670653|    0.824163|    0.011937|
|         100|   -4.450350|   -6.676061|    0.824170|    0.011943|
|         101|   -4.453002|   -6.681537|    0.824178|    0.011937|
+-----------------------------------------------------------------------+
|Fixed CL Mode                           |Value                         |
+-----------------------------------------------------------------------+
|Current CL                              |0.824178                      |
|Target CL                               |0.824                         |
|Previous AOA                            |2.76818                       |
|Changed AoA by                          |-0.000851991                  |
+-----------------------------------------------------------------------+
+----------------------------------------------------------------+
|  Inner_Iter|    rms[Rho]|     rms[nu]|          CL|          CD|
+----------------------------------------------------------------+
|         102|   -3.261591|   -6.677192|    0.824186|    0.011943|
|         103|   -3.637164|   -6.687308|    0.824195|    0.011950|
|         104|   -3.861706|   -6.694110|    0.824203|    0.011956|
|         105|   -3.934099|   -6.700222|    0.824211|    0.011963|
|         106|   -3.987020|   -6.706035|    0.824218|    0.011970|
|         107|   -4.054198|   -6.711645|    0.824226|    0.011977|
|         108|   -4.133965|   -6.717104|    0.824232|    0.011984|
|         109|   -4.213155|   -6.722454|    0.824238|    0.011991|
|         110|   -4.276706|   -6.727727|    0.824244|    0.011997|
|         111|   -4.318422|   -6.732944|    0.824248|    0.012004|
|         112|   -4.341247|   -6.738119|    0.824251|    0.012010|
|         113|   -4.350148|   -6.743273|    0.824254|    0.012016|
|         114|   -4.349831|   -6.748430|    0.824256|    0.012022|
|         115|   -4.345423|   -6.753609|    0.824256|    0.012028|
|         116|   -4.341537|   -6.758816|    0.824256|    0.012033|
|         117|   -4.340786|   -6.764053|    0.824254|    0.012038|
|         118|   -4.343436|   -6.769310|    0.824252|    0.012042|
|         119|   -4.348111|   -6.774578|    0.824248|    0.012046|
|         120|   -4.352957|   -6.779849|    0.824244|    0.012050|
|         121|   -4.356677|   -6.785118|    0.824240|    0.012053|
|         122|   -4.358985|   -6.790381|    0.824235|    0.012056|
|         123|   -4.360354|   -6.795638|    0.824229|    0.012059|
|         124|   -4.361469|   -6.800899|    0.824223|    0.012061|
|         125|   -4.362825|   -6.806184|    0.824217|    0.012063|
|         126|   -4.364640|   -6.811522|    0.824211|    0.012065|
|         127|   -4.366940|   -6.816943|    0.824205|    0.012066|
|         128|   -4.369669|   -6.822478|    0.824199|    0.012067|
|         129|   -4.372739|   -6.828150|    0.824193|    0.012068|
|         130|   -4.376036|   -6.833974|    0.824188|    0.012069|
|         131|   -4.379436|   -6.839951|    0.824183|    0.012070|
|         132|   -4.382825|   -6.846058|    0.824178|    0.012071|
|         133|   -4.386133|   -6.852262|    0.824174|    0.012071|
|         134|   -4.389341|   -6.858504|    0.824170|    0.012071|
|         135|   -4.392465|   -6.864717|    0.824167|    0.012072|
|         136|   -4.395522|   -6.870816|    0.824163|    0.012072|
|         137|   -4.398503|   -6.876707|    0.824161|    0.012072|
|         138|   -4.401359|   -6.882292|    0.824158|    0.012072|
|         139|   -4.403990|   -6.887471|    0.824156|    0.012073|
|         140|   -4.406266|   -6.892147|    0.824154|    0.012073|
|         141|   -4.408042|   -6.896236|    0.824152|    0.012073|
|         142|   -4.409195|   -6.899661|    0.824150|    0.012073|
|         143|   -4.409650|   -6.902357|    0.824148|    0.012073|
|         144|   -4.409401|   -6.904294|    0.824145|    0.012072|
|         145|   -4.408515|   -6.905489|    0.824143|    0.012072|
|         146|   -4.407111|   -6.906037|    0.824140|    0.012072|
|         147|   -4.405336|   -6.906109|    0.824136|    0.012071|
|         148|   -4.403326|   -6.905914|    0.824132|    0.012070|
|         149|   -4.401189|   -6.905642|    0.824128|    0.012070|
|         150|   -4.398990|   -6.905434|    0.824123|    0.012069|
|         151|   -4.396755|   -6.905367|    0.824117|    0.012067|
|         152|   -4.394479|   -6.905472|    0.824110|    0.012066|
|         153|   -4.392142|   -6.905746|    0.824103|    0.012064|
|         154|   -4.389724|   -6.906164|    0.824096|    0.012063|
|         155|   -4.387215|   -6.906696|    0.824088|    0.012061|
|         156|   -4.384619|   -6.907303|    0.824079|    0.012059|
|         157|   -4.381956|   -6.907939|    0.824069|    0.012057|
|         158|   -4.379257|   -6.908552|    0.824060|    0.012054|
|         159|   -4.376560|   -6.909083|    0.824049|    0.012052|
|         160|   -4.373906|   -6.909473|    0.824039|    0.012049|
|         161|   -4.371329|   -6.909657|    0.824028|    0.012046|
|         162|   -4.368861|   -6.909583|    0.824017|    0.012043|
|         163|   -4.366527|   -6.909210|    0.824006|    0.012040|
|         164|   -4.364345|   -6.908515|    0.823996|    0.012037|
|         165|   -4.362326|   -6.907486|    0.823985|    0.012034|
|         166|   -4.360481|   -6.906131|    0.823975|    0.012030|
|         167|   -4.358813|   -6.904474|    0.823965|    0.012027|
|         168|   -4.357325|   -6.902555|    0.823955|    0.012024|
|         169|   -4.356015|   -6.900433|    0.823946|    0.012021|
|         170|   -4.354879|   -6.898174|    0.823937|    0.012017|
|         171|   -4.353911|   -6.895851|    0.823930|    0.012014|
|         172|   -4.353101|   -6.893538|    0.823922|    0.012011|
|         173|   -4.352437|   -6.891305|    0.823916|    0.012008|
|         174|   -4.351909|   -6.889219|    0.823911|    0.012005|
|         175|   -4.351504|   -6.887340|    0.823906|    0.012002|
|         176|   -4.351211|   -6.885717|    0.823902|    0.011999|
|         177|   -4.351021|   -6.884391|    0.823899|    0.011996|
|         178|   -4.350928|   -6.883389|    0.823897|    0.011994|
|         179|   -4.350930|   -6.882729|    0.823896|    0.011991|
|         180|   -4.351027|   -6.882423|    0.823896|    0.011988|
|         181|   -4.351224|   -6.882468|    0.823897|    0.011986|
|         182|   -4.351529|   -6.882851|    0.823898|    0.011984|
|         183|   -4.351952|   -6.883556|    0.823900|    0.011981|
|         184|   -4.352506|   -6.884563|    0.823903|    0.011979|
|         185|   -4.353205|   -6.885844|    0.823907|    0.011977|
|         186|   -4.354060|   -6.887368|    0.823911|    0.011975|
|         187|   -4.355084|   -6.889101|    0.823916|    0.011973|
|         188|   -4.356285|   -6.891008|    0.823921|    0.011972|
|         189|   -4.357668|   -6.893055|    0.823927|    0.011970|
|         190|   -4.359232|   -6.895209|    0.823933|    0.011968|
|         191|   -4.360972|   -6.897441|    0.823940|    0.011967|
|         192|   -4.362873|   -6.899723|    0.823947|    0.011965|
|         193|   -4.364917|   -6.902036|    0.823954|    0.011964|
|         194|   -4.367075|   -6.904362|    0.823961|    0.011962|
|         195|   -4.369312|   -6.906690|    0.823969|    0.011961|
|         196|   -4.371589|   -6.909014|    0.823977|    0.011960|
|         197|   -4.373859|   -6.911331|    0.823985|    0.011959|
|         198|   -4.376074|   -6.913641|    0.823993|    0.011958|
|         199|   -4.378183|   -6.915951|    0.824001|    0.011957|
|         200|   -4.380138|   -6.918273|    0.824009|    0.011956|
|         201|   -4.381893|   -6.920621|    0.824017|    0.011954|
+-----------------------------------------------------------------------+
|Fixed CL Mode                           |Value                         |
+-----------------------------------------------------------------------+
|Current CL                              |0.824017                      |
|Target CL                               |0.824                         |
|Previous AOA                            |2.76733                       |
|Changed AoA by                          |-4.39014e-05                  |
+-----------------------------------------------------------------------+
+----------------------------------------------------------------+
|  Inner_Iter|    rms[Rho]|     rms[nu]|          CL|          CD|
+----------------------------------------------------------------+
|         202|   -4.302104|   -6.922865|    0.824025|    0.011954|
|         203|   -4.367402|   -6.925312|    0.824033|    0.011953|
|         204|   -4.377315|   -6.927807|    0.824041|    0.011953|
|         205|   -4.379058|   -6.930392|    0.824049|    0.011952|
|         206|   -4.380857|   -6.933077|    0.824056|    0.011952|
|         207|   -4.382893|   -6.935868|    0.824064|    0.011952|
|         208|   -4.384603|   -6.938767|    0.824071|    0.011952|
|         209|   -4.385697|   -6.941774|    0.824078|    0.011952|
|         210|   -4.386223|   -6.944887|    0.824085|    0.011953|
|         211|   -4.386395|   -6.948104|    0.824092|    0.011953|
|         212|   -4.386435|   -6.951424|    0.824099|    0.011954|
|         213|   -4.386518|   -6.954846|    0.824105|    0.011954|
|         214|   -4.386777|   -6.958366|    0.824111|    0.011955|
|         215|   -4.387328|   -6.961984|    0.824117|    0.011956|
|         216|   -4.388276|   -6.965696|    0.824122|    0.011957|
|         217|   -4.389712|   -6.969499|    0.824127|    0.011959|
|         218|   -4.391712|   -6.973388|    0.824131|    0.011960|
|         219|   -4.394338|   -6.977360|    0.824136|    0.011961|
|         220|   -4.397641|   -6.981414|    0.824140|    0.011963|
|         221|   -4.401662|   -6.985550|    0.824143|    0.011965|
|         222|   -4.406437|   -6.989771|    0.824146|    0.011967|
|         223|   -4.411991|   -6.994083|    0.824149|    0.011969|
|         224|   -4.418342|   -6.998494|    0.824151|    0.011971|
|         225|   -4.425496|   -7.003020|    0.824153|    0.011973|
|         226|   -4.433446|   -7.007674|    0.824155|    0.011975|
|         227|   -4.442176|   -7.012470|    0.824156|    0.011977|
|         228|   -4.451657|   -7.017429|    0.824157|    0.011980|
|         229|   -4.461849|   -7.022572|    0.824157|    0.011982|
|         230|   -4.472696|   -7.027924|    0.824158|    0.011984|
|         231|   -4.484129|   -7.033509|    0.824157|    0.011987|
|         232|   -4.496063|   -7.039354|    0.824157|    0.011989|
|         233|   -4.508394|   -7.045484|    0.824157|    0.011992|
|         234|   -4.521001|   -7.051924|    0.824156|    0.011994|
|         235|   -4.533747|   -7.058696|    0.824155|    0.011996|
|         236|   -4.546477|   -7.065818|    0.824154|    0.011999|
|         237|   -4.559023|   -7.073307|    0.824152|    0.012001|
|         238|   -4.571209|   -7.081172|    0.824151|    0.012004|
|         239|   -4.582856|   -7.089421|    0.824149|    0.012006|
|         240|   -4.593790|   -7.098054|    0.824148|    0.012008|
|         241|   -4.603852|   -7.107066|    0.824146|    0.012011|
|         242|   -4.612906|   -7.116448|    0.824144|    0.012013|
|         243|   -4.620848|   -7.126184|    0.824143|    0.012015|
|         244|   -4.627614|   -7.136252|    0.824141|    0.012017|
|         245|   -4.633181|   -7.146626|    0.824139|    0.012019|
|         246|   -4.637572|   -7.157271|    0.824138|    0.012022|
|         247|   -4.640846|   -7.168150|    0.824136|    0.012023|
|         248|   -4.643098|   -7.179216|    0.824134|    0.012025|
|         249|   -4.644448|   -7.190425|    0.824132|    0.012027|
|         250|   -4.645034|   -7.201726|    0.824131|    0.012029|
|         251|   -4.645000|   -7.213070|    0.824129|    0.012030|
|         252|   -4.644495|   -7.224407|    0.824127|    0.012032|
|         253|   -4.643658|   -7.235692|    0.824125|    0.012033|
|         254|   -4.642622|   -7.246881|    0.824123|    0.012035|
|         255|   -4.641508|   -7.257939|    0.824121|    0.012036|
|         256|   -4.640422|   -7.268843|    0.824119|    0.012037|
|         257|   -4.639457|   -7.279578|    0.824117|    0.012038|
|         258|   -4.638691|   -7.290134|    0.824115|    0.012039|
|         259|   -4.638191|   -7.300517|    0.824112|    0.012040|
|         260|   -4.638010|   -7.310740|    0.824110|    0.012041|
|         261|   -4.638192|   -7.320824|    0.824107|    0.012041|
|         262|   -4.638773|   -7.330794|    0.824104|    0.012042|
|         263|   -4.639780|   -7.340670|    0.824101|    0.012042|
|         264|   -4.641231|   -7.350468|    0.824098|    0.012042|
|         265|   -4.643141|   -7.360199|    0.824094|    0.012042|
|         266|   -4.645520|   -7.369858|    0.824091|    0.012042|
|         267|   -4.648371|   -7.379429|    0.824087|    0.012042|
|         268|   -4.651698|   -7.388869|    0.824083|    0.012042|
|         269|   -4.655496|   -7.398120|    0.824079|    0.012042|
|         270|   -4.659761|   -7.407094|    0.824075|    0.012041|
|         271|   -4.664484|   -7.415681|    0.824071|    0.012041|
|         272|   -4.669655|   -7.423751|    0.824066|    0.012040|
|         273|   -4.675261|   -7.431157|    0.824062|    0.012039|
|         274|   -4.681284|   -7.437743|    0.824057|    0.012038|
|         275|   -4.687705|   -7.443363|    0.824053|    0.012037|
|         276|   -4.694503|   -7.447879|    0.824049|    0.012036|
|         277|   -4.701651|   -7.451174|    0.824044|    0.012035|
|         278|   -4.709123|   -7.453173|    0.824040|    0.012034|
|         279|   -4.716885|   -7.453859|    0.824035|    0.012033|
|         280|   -4.724902|   -7.453260|    0.824031|    0.012031|
|         281|   -4.733136|   -7.451451|    0.824027|    0.012030|
|         282|   -4.741544|   -7.448552|    0.824023|    0.012028|
|         283|   -4.750080|   -7.444719|    0.824020|    0.012027|
|         284|   -4.758694|   -7.440135|    0.824016|    0.012025|
|         285|   -4.767336|   -7.434998|    0.824013|    0.012023|
|         286|   -4.775950|   -7.429515|    0.824010|    0.012022|
|         287|   -4.784482|   -7.423886|    0.824007|    0.012020|
|         288|   -4.792877|   -7.418299|    0.824005|    0.012018|
|         289|   -4.801079|   -7.412926|    0.824003|    0.012016|
|         290|   -4.809036|   -7.407918|    0.824001|    0.012015|
|         291|   -4.816700|   -7.403409|    0.823999|    0.012013|
|         292|   -4.824025|   -7.399513|    0.823998|    0.012011|
|         293|   -4.830974|   -7.396328|    0.823997|    0.012009|
|         294|   -4.837516|   -7.393932|    0.823996|    0.012007|
|         295|   -4.843626|   -7.392387|    0.823996|    0.012005|
|         296|   -4.849290|   -7.391741|    0.823995|    0.012004|
|         297|   -4.854499|   -7.392030|    0.823996|    0.012002|
|         298|   -4.859255|   -7.393278|    0.823996|    0.012000|
|         299|   -4.863564|   -7.395499|    0.823997|    0.011998|
|         300|   -4.867438|   -7.398695|    0.823998|    0.011997|
|         301|   -4.870896|   -7.402857|    0.823999|    0.011995|
+-----------------------------------------------------------------------+
|Fixed CL Mode                           |Value                         |
+-----------------------------------------------------------------------+
|Current CL                              |0.823999                      |
|Target CL                               |0.824                         |
|Previous AOA                            |2.76729                       |
|Changed AoA by                          |1.18452e-05                   |
+-----------------------------------------------------------------------+
+----------------------------------------------------------------+
|  Inner_Iter|    rms[Rho]|     rms[nu]|          CL|          CD|
+----------------------------------------------------------------+
|         302|   -4.814698|   -7.408016|    0.824000|    0.011993|
|         303|   -4.868796|   -7.414070|    0.824002|    0.011992|
|         304|   -4.880123|   -7.420983|    0.824004|    0.011990|
|         305|   -4.883229|   -7.428707|    0.824006|    0.011989|
|         306|   -4.884765|   -7.437173|    0.824008|    0.011988|
|         307|   -4.885785|   -7.446293|    0.824010|    0.011986|
|         308|   -4.886510|   -7.455965|    0.824013|    0.011985|
|         309|   -4.886988|   -7.466068|    0.824016|    0.011984|
|         310|   -4.887262|   -7.476471|    0.824018|    0.011983|
|         311|   -4.887381|   -7.487028|    0.824021|    0.011982|
|         312|   -4.887377|   -7.497578|    0.824024|    0.011981|
|         313|   -4.887261|   -7.507946|    0.824028|    0.011980|
|         314|   -4.887034|   -7.517959|    0.824031|    0.011979|
|         315|   -4.886695|   -7.527445|    0.824034|    0.011978|
|         316|   -4.886245|   -7.536244|    0.824037|    0.011977|
|         317|   -4.885685|   -7.544217|    0.824041|    0.011977|
|         318|   -4.885013|   -7.551258|    0.824044|    0.011976|
|         319|   -4.884231|   -7.557299|    0.824048|    0.011976|
|         320|   -4.883347|   -7.562318|    0.824051|    0.011975|
|         321|   -4.882376|   -7.566333|    0.824055|    0.011975|
|         322|   -4.881342|   -7.569408|    0.824058|    0.011975|
|         323|   -4.880271|   -7.571639|    0.824062|    0.011975|
|         324|   -4.879193|   -7.573141|    0.824066|    0.011975|
|         325|   -4.878138|   -7.574050|    0.824069|    0.011975|
|         326|   -4.877132|   -7.574499|    0.824073|    0.011975|
|         327|   -4.876201|   -7.574615|    0.824077|    0.011975|
|         328|   -4.875371|   -7.574520|    0.824080|    0.011975|
|         329|   -4.874664|   -7.574313|    0.824084|    0.011975|
|         330|   -4.874104|   -7.574084|    0.824088|    0.011976|
|         331|   -4.873715|   -7.573892|    0.824091|    0.011976|
|         332|   -4.873517|   -7.573777|    0.824095|    0.011977|
|         333|   -4.873534|   -7.573759|    0.824099|    0.011977|
|         334|   -4.873784|   -7.573838|    0.824102|    0.011978|
|         335|   -4.874287|   -7.574000|    0.824106|    0.011978|
|         336|   -4.875059|   -7.574217|    0.824109|    0.011979|
|         337|   -4.876113|   -7.574451|    0.824113|    0.011980|
|         338|   -4.877462|   -7.574657|    0.824116|    0.011980|
|         339|   -4.879113|   -7.574789|    0.824119|    0.011981|
|         340|   -4.881075|   -7.574800|    0.824123|    0.011982|
|         341|   -4.883350|   -7.574649|    0.824126|    0.011983|
|         342|   -4.885943|   -7.574300|    0.824129|    0.011984|
|         343|   -4.888854|   -7.573729|    0.824132|    0.011984|
|         344|   -4.892084|   -7.572924|    0.824134|    0.011985|
|         345|   -4.895628|   -7.571887|    0.824137|    0.011986|
|         346|   -4.899485|   -7.570631|    0.824140|    0.011987|
|         347|   -4.903647|   -7.569173|    0.824142|    0.011988|
|         348|   -4.908107|   -7.567542|    0.824144|    0.011989|
|         349|   -4.912854|   -7.565781|    0.824146|    0.011990|
|         350|   -4.917875|   -7.563941|    0.824148|    0.011991|
|         351|   -4.923154|   -7.562081|    0.824149|    0.011992|
|         352|   -4.928672|   -7.560263|    0.824151|    0.011993|
|         353|   -4.934407|   -7.558551|    0.824152|    0.011994|
|         354|   -4.940333|   -7.557009|    0.824153|    0.011994|
|         355|   -4.946420|   -7.555699|    0.824154|    0.011995|
|         356|   -4.952635|   -7.554680|    0.824154|    0.011996|
|         357|   -4.958943|   -7.554000|    0.824155|    0.011997|
|         358|   -4.965302|   -7.553703|    0.824155|    0.011998|
|         359|   -4.971668|   -7.553827|    0.824155|    0.011999|
|         360|   -4.977994|   -7.554399|    0.824154|    0.011999|
|         361|   -4.984229|   -7.555440|    0.824154|    0.012000|
|         362|   -4.990322|   -7.556959|    0.824153|    0.012001|
|         363|   -4.996218|   -7.558961|    0.824152|    0.012001|
|         364|   -5.001862|   -7.561438|    0.824151|    0.012002|
|         365|   -5.007203|   -7.564375|    0.824149|    0.012003|
|         366|   -5.012190|   -7.567746|    0.824148|    0.012003|
|         367|   -5.016775|   -7.571516|    0.824146|    0.012004|
|         368|   -5.020920|   -7.575641|    0.824144|    0.012004|
|         369|   -5.024590|   -7.580067|    0.824142|    0.012005|
|         370|   -5.027761|   -7.584733|    0.824140|    0.012005|
|         371|   -5.030418|   -7.589566|    0.824137|    0.012006|
|         372|   -5.032557|   -7.594492|    0.824135|    0.012006|
|         373|   -5.034185|   -7.599425|    0.824132|    0.012007|
|         374|   -5.035319|   -7.604273|    0.824129|    0.012007|
|         375|   -5.035985|   -7.608941|    0.824126|    0.012007|
|         376|   -5.036221|   -7.613335|    0.824123|    0.012008|
|         377|   -5.036070|   -7.617363|    0.824120|    0.012008|
|         378|   -5.035582|   -7.620941|    0.824116|    0.012008|
|         379|   -5.034812|   -7.623993|    0.824113|    0.012008|
|         380|   -5.033816|   -7.626460|    0.824109|    0.012008|
|         381|   -5.032653|   -7.628297|    0.824106|    0.012008|
|         382|   -5.031382|   -7.629480|    0.824103|    0.012009|
|         383|   -5.030057|   -7.630002|    0.824099|    0.012009|
|         384|   -5.028733|   -7.629878|    0.824096|    0.012009|
|         385|   -5.027460|   -7.629140|    0.824092|    0.012009|
|         386|   -5.026284|   -7.627837|    0.824089|    0.012009|
|         387|   -5.025246|   -7.626031|    0.824085|    0.012009|
|         388|   -5.024382|   -7.623794|    0.824082|    0.012008|
|         389|   -5.023724|   -7.621204|    0.824078|    0.012008|
|         390|   -5.023298|   -7.618342|    0.824075|    0.012008|
|         391|   -5.023126|   -7.615288|    0.824072|    0.012008|
|         392|   -5.023225|   -7.612119|    0.824069|    0.012008|
|         393|   -5.023607|   -7.608907|    0.824065|    0.012008|
|         394|   -5.024279|   -7.605713|    0.824062|    0.012007|
|         395|   -5.025246|   -7.602596|    0.824060|    0.012007|
|         396|   -5.026507|   -7.599603|    0.824057|    0.012007|
|         397|   -5.028060|   -7.596770|    0.824054|    0.012007|
|         398|   -5.029897|   -7.594126|    0.824052|    0.012006|
|         399|   -5.032010|   -7.591692|    0.824049|    0.012006|
|         400|   -5.034387|   -7.589476|    0.824047|    0.012006|
|         401|   -5.037013|   -7.587481|    0.824045|    0.012002|
+-----------------------------------------------------------------------+
|Fixed CL Mode                           |Value                         |
+-----------------------------------------------------------------------+
|Current CL                              |0.824045                      |
|Target CL                               |0.824                         |
|Previous AOA                            |2.7673                        |
|Changed AoA by                          |-0.000234259                  |
+-----------------------------------------------------------------------+
+----------------------------------------------------------------+
|  Inner_Iter|    rms[Rho]|     rms[nu]|          CL|          CD|
+----------------------------------------------------------------+
|         402|   -3.823023|   -7.542722|    0.824043|    0.012002|
|         403|   -4.204181|   -7.561855|    0.824041|    0.012001|
|         404|   -4.438588|   -7.567237|    0.824039|    0.012001|
|         405|   -4.510234|   -7.569810|    0.824037|    0.012001|
|         406|   -4.558073|   -7.571287|    0.824036|    0.012000|
|         407|   -4.619418|   -7.572112|    0.824035|    0.012000|
|         408|   -4.692624|   -7.572500|    0.824033|    0.012000|
|         409|   -4.764894|   -7.572611|    0.824032|    0.011999|
|         410|   -4.823304|   -7.572555|    0.824032|    0.011999|
|         411|   -4.864147|   -7.572385|    0.824031|    0.011998|
|         412|   -4.890937|   -7.572137|    0.824030|    0.011998|
|         413|   -4.907428|   -7.571860|    0.824030|    0.011998|
|         414|   -4.916424|   -7.571616|    0.824029|    0.011997|
|         415|   -4.921442|   -7.571438|    0.824029|    0.011997|
|         416|   -4.926411|   -7.571332|    0.824029|    0.011996|
|         417|   -4.934052|   -7.571281|    0.824029|    0.011996|
|         418|   -4.945020|   -7.571276|    0.824029|    0.011996|
|         419|   -4.958247|   -7.571323|    0.824030|    0.011995|
|         420|   -4.971982|   -7.571440|    0.824030|    0.011995|
|         421|   -4.984908|   -7.571643|    0.824031|    0.011995|
|         422|   -4.996711|   -7.571948|    0.824031|    0.011994|
|         423|   -5.007863|   -7.572363|    0.824032|    0.011994|
|         424|   -5.018970|   -7.572892|    0.824033|    0.011994|
|         425|   -5.030261|   -7.573543|    0.824034|    0.011994|
|         426|   -5.041494|   -7.574330|    0.824035|    0.011993|
|         427|   -5.052147|   -7.575267|    0.824036|    0.011993|
|         428|   -5.061690|   -7.576368|    0.824038|    0.011993|
|         429|   -5.069764|   -7.577648|    0.824039|    0.011993|
|         430|   -5.076245|   -7.579118|    0.824041|    0.011993|
|         431|   -5.081231|   -7.580781|    0.824042|    0.011992|
|         432|   -5.085015|   -7.582638|    0.824044|    0.011992|
|         433|   -5.088020|   -7.584678|    0.824045|    0.011992|
|         434|   -5.090717|   -7.586882|    0.824047|    0.011992|
|         435|   -5.093516|   -7.589222|    0.824049|    0.011992|
|         436|   -5.096689|   -7.591663|    0.824051|    0.011992|
|         437|   -5.100322|   -7.594160|    0.824053|    0.011992|
|         438|   -5.104316|   -7.596664|    0.824054|    0.011992|
|         439|   -5.108424|   -7.599122|    0.824056|    0.011992|
|         440|   -5.112301|   -7.601480|    0.824058|    0.011992|
|         441|   -5.115581|   -7.603682|    0.824060|    0.011992|
|         442|   -5.117955|   -7.605677|    0.824062|    0.011992|
|         443|   -5.119240|   -7.607420|    0.824064|    0.011992|
|         444|   -5.119423|   -7.608868|    0.824065|    0.011992|
|         445|   -5.118654|   -7.609987|    0.824067|    0.011992|
|         446|   -5.117198|   -7.610749|    0.824069|    0.011993|
|         447|   -5.115361|   -7.611131|    0.824071|    0.011993|
|         448|   -5.113424|   -7.611122|    0.824072|    0.011993|
|         449|   -5.111591|   -7.610718|    0.824074|    0.011993|
|         450|   -5.109977|   -7.609921|    0.824075|    0.011993|
|         451|   -5.108608|   -7.608747|    0.824076|    0.011994|
|         452|   -5.107452|   -7.607220|    0.824078|    0.011994|
|         453|   -5.106447|   -7.605374|    0.824079|    0.011994|
|         454|   -5.105532|   -7.603251|    0.824080|    0.011994|
|         455|   -5.104668|   -7.600900|    0.824080|    0.011994|
|         456|   -5.103848|   -7.598377|    0.824081|    0.011995|
|         457|   -5.103095|   -7.595742|    0.824082|    0.011995|
|         458|   -5.102460|   -7.593060|    0.824082|    0.011995|
|         459|   -5.102004|   -7.590398|    0.824082|    0.011995|
|         460|   -5.101789|   -7.587822|    0.824082|    0.011995|
|         461|   -5.101870|   -7.585397|    0.824082|    0.011996|
|         462|   -5.102289|   -7.583185|    0.824082|    0.011996|
|         463|   -5.103073|   -7.581245|    0.824082|    0.011996|
|         464|   -5.104238|   -7.579629|    0.824081|    0.011996|
|         465|   -5.105789|   -7.578386|    0.824081|    0.011996|
|         466|   -5.107724|   -7.577556|    0.824080|    0.011996|
|         467|   -5.110041|   -7.577174|    0.824079|    0.011996|
|         468|   -5.112735|   -7.577267|    0.824078|    0.011997|
|         469|   -5.115797|   -7.577855|    0.824077|    0.011997|
|         470|   -5.119223|   -7.578946|    0.824076|    0.011997|
|         471|   -5.123002|   -7.580543|    0.824075|    0.011997|
|         472|   -5.127123|   -7.582636|    0.824073|    0.011997|
|         473|   -5.131572|   -7.585209|    0.824072|    0.011997|
|         474|   -5.136330|   -7.588234|    0.824071|    0.011997|
|         475|   -5.141373|   -7.591673|    0.824069|    0.011997|
|         476|   -5.146673|   -7.595480|    0.824068|    0.011997|
|         477|   -5.152200|   -7.599598|    0.824067|    0.011997|
|         478|   -5.157917|   -7.603959|    0.824065|    0.011997|
|         479|   -5.163784|   -7.608491|    0.824064|    0.011997|
|         480|   -5.169757|   -7.613116|    0.824062|    0.011997|
|         481|   -5.175787|   -7.617751|    0.824061|    0.011997|
|         482|   -5.181825|   -7.622310|    0.824060|    0.011997|
|         483|   -5.187815|   -7.626714|    0.824058|    0.011997|
|         484|   -5.193704|   -7.630887|    0.824057|    0.011997|
|         485|   -5.199433|   -7.634764|    0.824056|    0.011996|
|         486|   -5.204946|   -7.638294|    0.824055|    0.011996|
|         487|   -5.210187|   -7.641440|    0.824054|    0.011996|
|         488|   -5.215103|   -7.644183|    0.824053|    0.011996|
|         489|   -5.219643|   -7.646524|    0.824052|    0.011996|
|         490|   -5.223764|   -7.648477|    0.824051|    0.011996|
|         491|   -5.227430|   -7.650078|    0.824051|    0.011995|
|         492|   -5.230611|   -7.651373|    0.824050|    0.011995|
|         493|   -5.233286|   -7.652419|    0.824049|    0.011995|
|         494|   -5.235446|   -7.653283|    0.824049|    0.011995|
|         495|   -5.237089|   -7.654032|    0.824048|    0.011994|
|         496|   -5.238225|   -7.654737|    0.824048|    0.011994|
|         497|   -5.238872|   -7.655464|    0.824047|    0.011994|
|         498|   -5.239057|   -7.656278|    0.824047|    0.011993|
|         499|   -5.238813|   -7.657233|    0.824047|    0.011993|
|         500|   -5.238183|   -7.658379|    0.824046|    0.011993|
|         501|   -5.237210|   -7.659759|    0.824046|    0.011989|
+-----------------------------------------------------------------------+
|Fixed CL Mode                           |Value                         |
+-----------------------------------------------------------------------+
|Current CL                              |0.824046                      |
|Target CL                               |0.824                         |
|Previous AOA                            |2.76707                       |
|Changed AoA by                          |-0.000231031                  |
+-----------------------------------------------------------------------+
+----------------------------------------------------------------+
|  Inner_Iter|    rms[Rho]|     rms[nu]|          CL|          CD|
+----------------------------------------------------------------+
|         502|   -3.829633|   -7.606961|    0.824046|    0.011989|
|         503|   -4.214135|   -7.635424|    0.824046|    0.011989|
|         504|   -4.456949|   -7.645999|    0.824045|    0.011988|
|         505|   -4.532689|   -7.653040|    0.824045|    0.011988|
|         506|   -4.582467|   -7.658883|    0.824045|    0.011988|
|         507|   -4.646811|   -7.664081|    0.824045|    0.011987|
|         508|   -4.724965|   -7.668837|    0.824045|    0.011987|
|         509|   -4.803531|   -7.673300|    0.824045|    0.011987|
|         510|   -4.867510|   -7.677566|    0.824045|    0.011986|
|         511|   -4.911505|   -7.681670|    0.824045|    0.011986|
|         512|   -4.939063|   -7.685631|    0.824045|    0.011986|
|         513|   -4.954676|   -7.689506|    0.824046|    0.011985|
|         514|   -4.961888|   -7.693365|    0.824046|    0.011985|
|         515|   -4.964990|   -7.697250|    0.824046|    0.011985|
|         516|   -4.968546|   -7.701133|    0.824046|    0.011985|
|         517|   -4.975564|   -7.704953|    0.824046|    0.011984|
|         518|   -4.986637|   -7.708645|    0.824046|    0.011984|
|         519|   -5.000404|   -7.712159|    0.824047|    0.011984|
|         520|   -5.014749|   -7.715460|    0.824047|    0.011984|
|         521|   -5.028100|   -7.718508|    0.824047|    0.011984|
|         522|   -5.040120|   -7.721253|    0.824047|    0.011984|
|         523|   -5.051450|   -7.723633|    0.824047|    0.011983|
|         524|   -5.062926|   -7.725588|    0.824047|    0.011983|
|         525|   -5.074952|   -7.727071|    0.824048|    0.011983|
|         526|   -5.087361|   -7.728054|    0.824048|    0.011983|
|         527|   -5.099615|   -7.728530|    0.824048|    0.011983|
|         528|   -5.111101|   -7.728521|    0.824048|    0.011983|
|         529|   -5.121343|   -7.728061|    0.824048|    0.011983|
|         530|   -5.130088|   -7.727202|    0.824048|    0.011983|
|         531|   -5.137339|   -7.726003|    0.824048|    0.011983|
|         532|   -5.143354|   -7.724526|    0.824048|    0.011983|
|         533|   -5.148604|   -7.722837|    0.824048|    0.011983|
|         534|   -5.153680|   -7.720997|    0.824048|    0.011983|
|         535|   -5.159162|   -7.719060|    0.824048|    0.011984|
|         536|   -5.165496|   -7.717073|    0.824048|    0.011984|
|         537|   -5.172924|   -7.715077|    0.824048|    0.011984|
|         538|   -5.181449|   -7.713107|    0.824048|    0.011984|
|         539|   -5.190857|   -7.711191|    0.824047|    0.011984|
|         540|   -5.200748|   -7.709352|    0.824047|    0.011985|
|         541|   -5.210617|   -7.707611|    0.824047|    0.011985|
|         542|   -5.219943|   -7.705986|    0.824047|    0.011985|
|         543|   -5.228308|   -7.704491|    0.824046|    0.011986|
|         544|   -5.235490|   -7.703140|    0.824046|    0.011986|
|         545|   -5.241513|   -7.701944|    0.824045|    0.011986|
|         546|   -5.246610|   -7.700911|    0.824045|    0.011987|
|         547|   -5.251137|   -7.700046|    0.824044|    0.011987|
|         548|   -5.255460|   -7.699347|    0.824043|    0.011987|
|         549|   -5.259855|   -7.698807|    0.824043|    0.011988|
|         550|   -5.264461|   -7.698417|    0.824042|    0.011988|
|         551|   -5.269265|   -7.698162|    0.824041|    0.011989|
|         552|   -5.274130|   -7.698026|    0.824040|    0.011989|
|         553|   -5.278850|   -7.697993|    0.824039|    0.011990|
|         554|   -5.283202|   -7.698046|    0.824038|    0.011990|
|         555|   -5.287001|   -7.698162|    0.824037|    0.011990|
|         556|   -5.290137|   -7.698318|    0.824036|    0.011991|
|         557|   -5.292582|   -7.698485|    0.824034|    0.011991|
|         558|   -5.294382|   -7.698640|    0.824033|    0.011992|
|         559|   -5.295639|   -7.698777|    0.824032|    0.011992|
|         560|   -5.296472|   -7.698889|    0.824030|    0.011993|
|         561|   -5.297002|   -7.698973|    0.824029|    0.011993|
|         562|   -5.297328|   -7.699031|    0.824027|    0.011994|
|         563|   -5.297529|   -7.699066|    0.824025|    0.011994|
|         564|   -5.297657|   -7.699090|    0.824023|    0.011995|
|         565|   -5.297750|   -7.699121|    0.824022|    0.011995|
|         566|   -5.297837|   -7.699172|    0.824020|    0.011996|
|         567|   -5.297945|   -7.699263|    0.824018|    0.011996|
|         568|   -5.298100|   -7.699421|    0.824016|    0.011996|
|         569|   -5.298336|   -7.699672|    0.824014|    0.011997|
|         570|   -5.298684|   -7.700041|    0.824012|    0.011997|
|         571|   -5.299179|   -7.700552|    0.824010|    0.011998|
|         572|   -5.299854|   -7.701230|    0.824008|    0.011998|
|         573|   -5.300738|   -7.702112|    0.824006|    0.011998|
|         574|   -5.301857|   -7.703216|    0.824004|    0.011998|
|         575|   -5.303235|   -7.704552|    0.824002|    0.011999|
|         576|   -5.304888|   -7.706124|    0.824000|    0.011999|
|         577|   -5.306834|   -7.707927|    0.823998|    0.011999|
|         578|   -5.309083|   -7.709951|    0.823997|    0.011999|
|         579|   -5.311647|   -7.712182|    0.823995|    0.012000|
|         580|   -5.314534|   -7.714593|    0.823993|    0.012000|
|         581|   -5.317749|   -7.717149|    0.823992|    0.012000|
|         582|   -5.321297|   -7.719813|    0.823991|    0.012000|
|         583|   -5.325180|   -7.722543|    0.823989|    0.012000|
|         584|   -5.329397|   -7.725296|    0.823988|    0.012000|
|         585|   -5.333944|   -7.728031|    0.823987|    0.012000|
|         586|   -5.338816|   -7.730708|    0.823986|    0.012000|
|         587|   -5.344004|   -7.733290|    0.823985|    0.012000|
|         588|   -5.349497|   -7.735748|    0.823984|    0.012000|
|         589|   -5.355280|   -7.738053|    0.823983|    0.012000|
|         590|   -5.361336|   -7.740186|    0.823983|    0.012000|
|         591|   -5.367642|   -7.742135|    0.823982|    0.012000|
|         592|   -5.374174|   -7.743896|    0.823982|    0.012000|
|         593|   -5.380904|   -7.745472|    0.823982|    0.012000|
|         594|   -5.387797|   -7.746877|    0.823981|    0.011999|
|         595|   -5.394818|   -7.748133|    0.823981|    0.011999|
|         596|   -5.401924|   -7.749270|    0.823981|    0.011999|
|         597|   -5.409070|   -7.750327|    0.823981|    0.011999|
|         598|   -5.416207|   -7.751343|    0.823981|    0.011998|
|         599|   -5.423282|   -7.752359|    0.823981|    0.011998|
|         600|   -5.430238|   -7.753418|    0.823982|    0.011998|
|         601|   -5.437017|   -7.754554|    0.823982|    0.011999|
+-----------------------------------------------------------------------+
|Fixed CL Mode                           |Value                         |
+-----------------------------------------------------------------------+
|Current CL                              |0.823982                      |
|Target CL                               |0.824                         |
|Previous AOA                            |2.76683                       |
|Changed AoA by                          |9.18141e-05                   |
+-----------------------------------------------------------------------+
+----------------------------------------------------------------+
|  Inner_Iter|    rms[Rho]|     rms[nu]|          CL|          CD|
+----------------------------------------------------------------+
|         602|   -4.229490|   -7.740502|    0.823982|    0.011998|
|         603|   -4.610065|   -7.749268|    0.823982|    0.011998|
|         604|   -4.846211|   -7.752966|    0.823983|    0.011997|
|         605|   -4.921614|   -7.755842|    0.823983|    0.011997|
|         606|   -4.972459|   -7.758597|    0.823984|    0.011997|
|         607|   -5.036281|   -7.761401|    0.823984|    0.011996|
|         608|   -5.111503|   -7.764313|    0.823985|    0.011996|
|         609|   -5.184508|   -7.767361|    0.823985|    0.011995|
|         610|   -5.241260|   -7.770552|    0.823986|    0.011995|
|         611|   -5.278046|   -7.773871|    0.823986|    0.011994|
|         612|   -5.299455|   -7.777305|    0.823987|    0.011994|
|         613|   -5.310380|   -7.780850|    0.823987|    0.011993|
|         614|   -5.314418|   -7.784510|    0.823987|    0.011993|
|         615|   -5.315394|   -7.788282|    0.823988|    0.011992|
|         616|   -5.317051|   -7.792172|    0.823988|    0.011992|
|         617|   -5.321675|   -7.796149|    0.823989|    0.011991|
|         618|   -5.329488|   -7.800182|    0.823989|    0.011991|
|         619|   -5.339104|   -7.804255|    0.823990|    0.011990|
|         620|   -5.348601|   -7.808356|    0.823990|    0.011990|
|         621|   -5.356605|   -7.812479|    0.823990|    0.011989|
|         622|   -5.362814|   -7.816618|    0.823991|    0.011989|
|         623|   -5.367757|   -7.820763|    0.823991|    0.011988|
|         624|   -5.372164|   -7.824909|    0.823991|    0.011988|
|         625|   -5.376508|   -7.829050|    0.823991|    0.011987|
|         626|   -5.380899|   -7.833184|    0.823991|    0.011987|
|         627|   -5.385229|   -7.837310|    0.823992|    0.011987|
|         628|   -5.389336|   -7.841426|    0.823992|    0.011986|
|         629|   -5.393095|   -7.845529|    0.823992|    0.011986|
|         630|   -5.396441|   -7.849615|    0.823992|    0.011986|
|         631|   -5.399377|   -7.853676|    0.823992|    0.011985|
|         632|   -5.401984|   -7.857705|    0.823992|    0.011985|
|         633|   -5.404428|   -7.861662|    0.823992|    0.011985|
|         634|   -5.406939|   -7.865543|    0.823992|    0.011985|
|         635|   -5.409765|   -7.869340|    0.823992|    0.011985|
|         636|   -5.413118|   -7.873044|    0.823992|    0.011984|
|         637|   -5.417137|   -7.876645|    0.823992|    0.011984|
|         638|   -5.421870|   -7.880132|    0.823992|    0.011984|
|         639|   -5.427269|   -7.883492|    0.823992|    0.011984|
|         640|   -5.433216|   -7.886715|    0.823992|    0.011984|
|         641|   -5.439542|   -7.889791|    0.823992|    0.011984|
|         642|   -5.446072|   -7.892714|    0.823992|    0.011984|
|         643|   -5.452664|   -7.895479|    0.823993|    0.011984|
|         644|   -5.459244|   -7.898091|    0.823993|    0.011984|
|         645|   -5.465821|   -7.900561|    0.823993|    0.011984|
|         646|   -5.472482|   -7.902904|    0.823993|    0.011985|
|         647|   -5.479358|   -7.905137|    0.823994|    0.011985|
|         648|   -5.486589|   -7.907289|    0.823994|    0.011985|
|         649|   -5.494285|   -7.909394|    0.823994|    0.011985|
|         650|   -5.502502|   -7.911493|    0.823995|    0.011985|
|         651|   -5.511233|   -7.913621|    0.823996|    0.011986|
|         652|   -5.520414|   -7.915815|    0.823996|    0.011986|
|         653|   -5.529939|   -7.918109|    0.823997|    0.011986|
|         654|   -5.539686|   -7.920533|    0.823997|    0.011987|
|         655|   -5.549531|   -7.923115|    0.823998|    0.011987|
|         656|   -5.559373|   -7.925878|    0.823999|    0.011988|
|         657|   -5.569137|   -7.928838|    0.824000|    0.011988|
|         658|   -5.578776|   -7.932008|    0.824001|    0.011989|
|         659|   -5.588266|   -7.935395|    0.824002|    0.011989|
|         660|   -5.597592|   -7.939006|    0.824003|    0.011990|
|         661|   -5.606742|   -7.942831|    0.824004|    0.011990|
|         662|   -5.615692|   -7.946850|    0.824005|    0.011991|
|         663|   -5.624407|   -7.951031|    0.824006|    0.011991|
|         664|   -5.632838|   -7.955334|    0.824007|    0.011992|
|         665|   -5.640926|   -7.959709|    0.824008|    0.011992|
|         666|   -5.648607|   -7.964100|    0.824009|    0.011993|
|         667|   -5.655820|   -7.968443|    0.824010|    0.011994|
|         668|   -5.662510|   -7.972668|    0.824011|    0.011994|
|         669|   -5.668632|   -7.976706|    0.824012|    0.011995|
|         670|   -5.674154|   -7.980485|    0.824013|    0.011995|
|         671|   -5.679056|   -7.983939|    0.824014|    0.011996|
|         672|   -5.683330|   -7.987007|    0.824014|    0.011997|
|         673|   -5.686984|   -7.989639|    0.824015|    0.011997|
|         674|   -5.690032|   -7.991801|    0.824016|    0.011998|
|         675|   -5.692502|   -7.993471|    0.824016|    0.011998|
|         676|   -5.694432|   -7.994630|    0.824017|    0.011999|
|         677|   -5.695867|   -7.995305|    0.824017|    0.011999|
|         678|   -5.696862|   -7.995539|    0.824018|    0.012000|
|         679|   -5.697477|   -7.995392|    0.824018|    0.012000|
|         680|   -5.697779|   -7.994936|    0.824018|    0.012001|
|         681|   -5.697836|   -7.994253|    0.824018|    0.012001|
|         682|   -5.697718|   -7.993434|    0.824018|    0.012002|
|         683|   -5.697496|   -7.992558|    0.824018|    0.012002|
|         684|   -5.697237|   -7.991706|    0.824018|    0.012003|
|         685|   -5.697006|   -7.990959|    0.824017|    0.012003|
|         686|   -5.696865|   -7.990388|    0.824017|    0.012003|
|         687|   -5.696869|   -7.990062|    0.824017|    0.012004|
|         688|   -5.697072|   -7.990038|    0.824016|    0.012004|
|         689|   -5.697521|   -7.990366|    0.824015|    0.012004|
|         690|   -5.698258|   -7.991083|    0.824015|    0.012004|
|         691|   -5.699321|   -7.992217|    0.824014|    0.012004|
|         692|   -5.700741|   -7.993782|    0.824013|    0.012005|
|         693|   -5.702548|   -7.995786|    0.824012|    0.012005|
|         694|   -5.704764|   -7.998220|    0.824011|    0.012005|
|         695|   -5.707410|   -8.001067|    0.824010|    0.012005|
|         696|   -5.710500|   -8.004304|    0.824009|    0.012005|
|         697|   -5.714046|   -8.007878|    0.824008|    0.012005|
|         698|   -5.718053|   -8.011728|    0.824007|    0.012005|
|         699|   -5.722527|   -8.015787|    0.824006|    0.012005|
|         700|   -5.727467|   -8.019984|    0.824005|    0.012005|
|         701|   -5.732869|   -8.024244|    0.824004|    0.012004|
+-----------------------------------------------------------------------+
|Fixed CL Mode                           |Value                         |
+-----------------------------------------------------------------------+
|Current CL                              |0.824004                      |
|Target CL                               |0.824                         |
|Previous AOA                            |2.76693                       |
|Changed AoA by                          |-2.62964e-05                  |
+-----------------------------------------------------------------------+
+----------------------------------------------------------------+
|  Inner_Iter|    rms[Rho]|     rms[nu]|          CL|          CD|
+----------------------------------------------------------------+
|         702|   -4.771538|   -8.024684|    0.824003|    0.012004|
|         703|   -5.148863|   -8.030906|    0.824002|    0.012004|
|         704|   -5.377457|   -8.035418|    0.824001|    0.012004|
|         705|   -5.445961|   -8.039448|    0.824000|    0.012004|
|         706|   -5.488345|   -8.043136|    0.823999|    0.012004|
|         707|   -5.539515|   -8.046467|    0.823998|    0.012003|
|         708|   -5.596822|   -8.049397|    0.823997|    0.012003|
|         709|   -5.648649|   -8.051891|    0.823996|    0.012003|
|         710|   -5.686482|   -8.053929|    0.823995|    0.012003|
|         711|   -5.710767|   -8.055510|    0.823994|    0.012002|
|         712|   -5.726202|   -8.056651|    0.823993|    0.012002|
|         713|   -5.736335|   -8.057389|    0.823992|    0.012001|
|         714|   -5.743304|   -8.057783|    0.823991|    0.012001|
|         715|   -5.749150|   -8.057878|    0.823991|    0.012001|
|         716|   -5.755888|   -8.057717|    0.823990|    0.012000|
|         717|   -5.764770|   -8.057342|    0.823989|    0.012000|
|         718|   -5.775828|   -8.056802|    0.823989|    0.011999|
|         719|   -5.788078|   -8.056144|    0.823988|    0.011999|
|         720|   -5.800177|   -8.055420|    0.823987|    0.011999|
|         721|   -5.811152|   -8.054679|    0.823987|    0.011998|
|         722|   -5.820757|   -8.053965|    0.823986|    0.011998|
|         723|   -5.829334|   -8.053317|    0.823986|    0.011997|
|         724|   -5.837392|   -8.052770|    0.823985|    0.011997|
|         725|   -5.845269|   -8.052352|    0.823985|    0.011996|
|         726|   -5.853032|   -8.052087|    0.823985|    0.011996|
|         727|   -5.860557|   -8.051994|    0.823984|    0.011995|
|         728|   -5.867648|   -8.052090|    0.823984|    0.011995|
|         729|   -5.874114|   -8.052388|    0.823984|    0.011994|
|         730|   -5.879815|   -8.052900|    0.823984|    0.011994|
|         731|   -5.884681|   -8.053635|    0.823984|    0.011994|
|         732|   -5.888739|   -8.054603|    0.823984|    0.011993|
|         733|   -5.892120|   -8.055811|    0.823984|    0.011993|
|         734|   -5.895036|   -8.057268|    0.823984|    0.011992|
|         735|   -5.897733|   -8.058981|    0.823984|    0.011992|
|         736|   -5.900434|   -8.060957|    0.823984|    0.011991|
|         737|   -5.903293|   -8.063203|    0.823984|    0.011991|
|         738|   -5.906374|   -8.065724|    0.823984|    0.011991|
|         739|   -5.909654|   -8.068528|    0.823985|    0.011990|
|         740|   -5.913038|   -8.071626|    0.823985|    0.011990|
|         741|   -5.916392|   -8.075012|    0.823985|    0.011990|
|         742|   -5.919578|   -8.078683|    0.823985|    0.011989|
|         743|   -5.922493|   -8.082635|    0.823986|    0.011989|
|         744|   -5.925099|   -8.086864|    0.823986|    0.011989|
|         745|   -5.927428|   -8.091362|    0.823987|    0.011988|
|         746|   -5.929568|   -8.096122|    0.823987|    0.011988|
|         747|   -5.931643|   -8.101133|    0.823987|    0.011988|
|         748|   -5.933771|   -8.106382|    0.823988|    0.011988|
|         749|   -5.936044|   -8.111853|    0.823988|    0.011988|
|         750|   -5.938509|   -8.117528|    0.823989|    0.011987|
|         751|   -5.941164|   -8.123388|    0.823989|    0.011987|
|         752|   -5.943970|   -8.129411|    0.823989|    0.011987|
|         753|   -5.946863|   -8.135574|    0.823990|    0.011987|
|         754|   -5.949768|   -8.141852|    0.823990|    0.011987|
|         755|   -5.952620|   -8.148221|    0.823991|    0.011987|
|         756|   -5.955366|   -8.154656|    0.823991|    0.011987|
|         757|   -5.957973|   -8.161136|    0.823991|    0.011987|
|         758|   -5.960425|   -8.167637|    0.823992|    0.011987|
|         759|   -5.962718|   -8.174140|    0.823992|    0.011987|
|         760|   -5.964854|   -8.180627|    0.823992|    0.011987|
|         761|   -5.966833|   -8.187082|    0.823992|    0.011987|
|         762|   -5.968653|   -8.193494|    0.823993|    0.011987|
|         763|   -5.970307|   -8.199851|    0.823993|    0.011988|
|         764|   -5.971783|   -8.206148|    0.823993|    0.011988|
|         765|   -5.973066|   -8.212377|    0.823993|    0.011988|
|         766|   -5.974140|   -8.218537|    0.823994|    0.011988|
|         767|   -5.974991|   -8.224622|    0.823994|    0.011988|
|         768|   -5.975610|   -8.230632|    0.823994|    0.011988|
|         769|   -5.975988|   -8.236562|    0.823994|    0.011989|
|         770|   -5.976124|   -8.242408|    0.823994|    0.011989|
|         771|   -5.976018|   -8.248166|    0.823994|    0.011989|
|         772|   -5.975673|   -8.253828|    0.823994|    0.011990|
|         773|   -5.975098|   -8.259384|    0.823994|    0.011990|
|         774|   -5.974300|   -8.264824|    0.823994|    0.011990|
|         775|   -5.973293|   -8.270138|    0.823994|    0.011990|
|         776|   -5.972090|   -8.275313|    0.823994|    0.011991|
|         777|   -5.970707|   -8.280336|    0.823995|    0.011991|
|         778|   -5.969162|   -8.285198|    0.823995|    0.011992|
|         779|   -5.967474|   -8.289890|    0.823995|    0.011992|
|         780|   -5.965666|   -8.294405|    0.823995|    0.011992|
|         781|   -5.963760|   -8.298741|    0.823995|    0.011993|
|         782|   -5.961777|   -8.302898|    0.823995|    0.011993|
|         783|   -5.959743|   -8.306883|    0.823995|    0.011993|
|         784|   -5.957681|   -8.310708|    0.823995|    0.011994|
|         785|   -5.955613|   -8.314384|    0.823995|    0.011994|
|         786|   -5.953563|   -8.317927|    0.823995|    0.011995|
|         787|   -5.951554|   -8.321351|    0.823995|    0.011995|
|         788|   -5.949606|   -8.324669|    0.823995|    0.011995|
|         789|   -5.947738|   -8.327896|    0.823995|    0.011996|
|         790|   -5.945971|   -8.331046|    0.823995|    0.011996|
|         791|   -5.944319|   -8.334133|    0.823995|    0.011997|
|         792|   -5.942798|   -8.337170|    0.823995|    0.011997|
|         793|   -5.941420|   -8.340168|    0.823995|    0.011997|
|         794|   -5.940194|   -8.343139|    0.823995|    0.011998|
|         795|   -5.939127|   -8.346093|    0.823995|    0.011998|
|         796|   -5.938222|   -8.349037|    0.823995|    0.011998|
|         797|   -5.937480|   -8.351981|    0.823995|    0.011999|
|         798|   -5.936898|   -8.354929|    0.823995|    0.011999|
|         799|   -5.936469|   -8.357887|    0.823995|    0.011999|
|         800|   -5.936183|   -8.360860|    0.823994|    0.012000|
|         801|   -5.936028|   -8.363853|    0.823994|    0.012000|
+-----------------------------------------------------------------------+
|Fixed CL Mode                           |Value                         |
+-----------------------------------------------------------------------+
|Current CL                              |0.823994                      |
|Target CL                               |0.824                         |
|Previous AOA                            |2.7669                        |
|Changed AoA by                          |2.80496e-05                   |
+-----------------------------------------------------------------------+
+----------------------------------------------------------------+
|  Inner_Iter|    rms[Rho]|     rms[nu]|          CL|          CD|
+----------------------------------------------------------------+
|         802|   -4.744285|   -8.342787|    0.823994|    0.012001|
|         803|   -5.121926|   -8.357095|    0.823994|    0.012001|
|         804|   -5.349236|   -8.363610|    0.823994|    0.012001|
|         805|   -5.419168|   -8.368591|    0.823994|    0.012001|
|         806|   -5.467162|   -8.373052|    0.823993|    0.012001|
|         807|   -5.527856|   -8.377280|    0.823993|    0.012002|
|         808|   -5.599080|   -8.381411|    0.823993|    0.012002|
|         809|   -5.668209|   -8.385535|    0.823993|    0.012002|
|         810|   -5.723000|   -8.389703|    0.823992|    0.012002|
|         811|   -5.760318|   -8.393925|    0.823992|    0.012002|
|         812|   -5.783784|   -8.398198|    0.823992|    0.012002|
|         813|   -5.797159|   -8.402529|    0.823991|    0.012002|
|         814|   -5.803262|   -8.406931|    0.823991|    0.012002|
|         815|   -5.805407|   -8.411410|    0.823991|    0.012002|
|         816|   -5.807095|   -8.415952|    0.823991|    0.012002|
|         817|   -5.810639|   -8.420539|    0.823990|    0.012002|
|         818|   -5.816499|   -8.425152|    0.823990|    0.012002|
|         819|   -5.823685|   -8.429782|    0.823990|    0.012002|
|         820|   -5.830721|   -8.434427|    0.823989|    0.012002|
|         821|   -5.836576|   -8.439082|    0.823989|    0.012002|
|         822|   -5.841053|   -8.443727|    0.823988|    0.012002|
|         823|   -5.844549|   -8.448332|    0.823988|    0.012002|
|         824|   -5.847548|   -8.452858|    0.823988|    0.012001|
|         825|   -5.850288|   -8.457257|    0.823987|    0.012001|
|         826|   -5.852725|   -8.461485|    0.823987|    0.012001|
|         827|   -5.854689|   -8.465488|    0.823987|    0.012001|
|         828|   -5.856035|   -8.469222|    0.823987|    0.012001|
|         829|   -5.856711|   -8.472644|    0.823986|    0.012000|
|         830|   -5.856759|   -8.475714|    0.823986|    0.012000|
|         831|   -5.856291|   -8.478398|    0.823986|    0.012000|
|         832|   -5.855471|   -8.480672|    0.823985|    0.012000|
|         833|   -5.854503|   -8.482506|    0.823985|    0.011999|
|         834|   -5.853598|   -8.483878|    0.823985|    0.011999|
|         835|   -5.852949|   -8.484777|    0.823985|    0.011999|
|         836|   -5.852693|   -8.485205|    0.823984|    0.011999|
|         837|   -5.852899|   -8.485174|    0.823984|    0.011998|
|         838|   -5.853563|   -8.484706|    0.823984|    0.011998|
|         839|   -5.854624|   -8.483836|    0.823984|    0.011998|
|         840|   -5.855984|   -8.482604|    0.823984|    0.011997|
|         841|   -5.857527|   -8.481058|    0.823984|    0.011997|
|         842|   -5.859150|   -8.479252|    0.823984|    0.011997|
|         843|   -5.860786|   -8.477238|    0.823983|    0.011996|
|         844|   -5.862416|   -8.475075|    0.823983|    0.011996|
|         845|   -5.864071|   -8.472821|    0.823983|    0.011996|
|         846|   -5.865821|   -8.470531|    0.823983|    0.011996|
|         847|   -5.867749|   -8.468260|    0.823983|    0.011995|
|         848|   -5.869932|   -8.466060|    0.823984|    0.011995|
|         849|   -5.872418|   -8.463983|    0.823984|    0.011995|
|         850|   -5.875218|   -8.462076|    0.823984|    0.011994|
|         851|   -5.878302|   -8.460382|    0.823984|    0.011994|
|         852|   -5.881614|   -8.458944|    0.823984|    0.011994|
|         853|   -5.885078|   -8.457804|    0.823984|    0.011994|
|         854|   -5.888611|   -8.457002|    0.823985|    0.011993|
|         855|   -5.892140|   -8.456575|    0.823985|    0.011993|
|         856|   -5.895604|   -8.456558|    0.823985|    0.011993|
|         857|   -5.898956|   -8.456982|    0.823986|    0.011993|
|         858|   -5.902165|   -8.457880|    0.823986|    0.011992|
|         859|   -5.905210|   -8.459278|    0.823986|    0.011992|
|         860|   -5.908073|   -8.461201|    0.823987|    0.011992|
|         861|   -5.910737|   -8.463675|    0.823987|    0.011992|
|         862|   -5.913181|   -8.466727|    0.823988|    0.011992|
|         863|   -5.915384|   -8.470356|    0.823988|    0.011992|
|         864|   -5.917319|   -8.474560|    0.823989|    0.011992|
|         865|   -5.918962|   -8.479327|    0.823989|    0.011991|
|         866|   -5.920291|   -8.484639|    0.823990|    0.011991|
|         867|   -5.921289|   -8.490468|    0.823990|    0.011991|
|         868|   -5.921946|   -8.496770|    0.823991|    0.011991|
|         869|   -5.922259|   -8.503489|    0.823992|    0.011991|
|         870|   -5.922233|   -8.510548|    0.823992|    0.011991|
|         871|   -5.921879|   -8.517853|    0.823993|    0.011991|
|         872|   -5.921214|   -8.525289|    0.823993|    0.011991|
|         873|   -5.920260|   -8.532719|    0.823994|    0.011991|
|         874|   -5.919043|   -8.539979|    0.823995|    0.011991|
|         875|   -5.917594|   -8.546897|    0.823995|    0.011991|
|         876|   -5.915945|   -8.553308|    0.823996|    0.011991|
|         877|   -5.914130|   -8.559049|    0.823996|    0.011991|
|         878|   -5.912186|   -8.563966|    0.823997|    0.011991|
|         879|   -5.910151|   -8.567925|    0.823997|    0.011991|
|         880|   -5.908063|   -8.570825|    0.823998|    0.011992|
|         881|   -5.905958|   -8.572600|    0.823998|    0.011992|
|         882|   -5.903875|   -8.573233|    0.823999|    0.011992|
|         883|   -5.901848|   -8.572750|    0.823999|    0.011992|
|         884|   -5.899912|   -8.571227|    0.823999|    0.011992|
|         885|   -5.898099|   -8.568776|    0.824000|    0.011992|
|         886|   -5.896438|   -8.565541|    0.824000|    0.011992|
|         887|   -5.894958|   -8.561688|    0.824000|    0.011992|
|         888|   -5.893683|   -8.557391|    0.824001|    0.011993|
|         889|   -5.892635|   -8.552829|    0.824001|    0.011993|
|         890|   -5.891834|   -8.548170|    0.824001|    0.011993|
|         891|   -5.891296|   -8.543570|    0.824001|    0.011993|
|         892|   -5.891035|   -8.539167|    0.824001|    0.011993|
|         893|   -5.891062|   -8.535080|    0.824001|    0.011993|
|         894|   -5.891387|   -8.531409|    0.824001|    0.011994|
|         895|   -5.892013|   -8.528232|    0.824001|    0.011994|
|         896|   -5.892946|   -8.525607|    0.824001|    0.011994|
|         897|   -5.894184|   -8.523578|    0.824001|    0.011994|
|         898|   -5.895726|   -8.522171|    0.824001|    0.011994|
|         899|   -5.897568|   -8.521398|    0.824001|    0.011995|
|         900|   -5.899703|   -8.521257|    0.824001|    0.011995|
|         901|   -5.902120|   -8.521737|    0.824001|    0.011995|
+-----------------------------------------------------------------------+
|Fixed CL Mode                           |Value                         |
+-----------------------------------------------------------------------+
|Current CL                              |0.824001                      |
|Target CL                               |0.824                         |
|Previous AOA                            |2.76693                       |
[...]
|        5298|   -6.047498|   -7.947097|    0.824239|    0.012000|
|        5299|   -6.054191|   -7.950979|    0.824239|    0.012000|
|        5300|   -6.060457|   -7.954894|    0.824239|    0.012000|
|        5301|   -6.066260|   -7.958862|    0.824239|    0.012000|
|        5302|   -6.071582|   -7.962899|    0.824239|    0.012000|
|        5303|   -6.076412|   -7.967019|    0.824239|    0.012000|
|        5304|   -6.080757|   -7.971231|    0.824239|    0.012000|
|        5305|   -6.084632|   -7.975544|    0.824239|    0.012000|
|        5306|   -6.088064|   -7.979962|    0.824239|    0.012000|
|        5307|   -6.091094|   -7.984490|    0.824239|    0.011999|
|        5308|   -6.093768|   -7.989128|    0.824240|    0.011999|
|        5309|   -6.096138|   -7.993878|    0.824240|    0.011999|
|        5310|   -6.098263|   -7.998740|    0.824240|    0.011999|
|        5311|   -6.100200|   -8.003713|    0.824240|    0.011999|
|        5312|   -6.102008|   -8.008797|    0.824240|    0.011999|
|        5313|   -6.103748|   -8.013994|    0.824240|    0.011999|
|        5314|   -6.105476|   -8.019306|    0.824240|    0.011999|
|        5315|   -6.107244|   -8.024733|    0.824240|    0.011999|
|        5316|   -6.109099|   -8.030280|    0.824240|    0.011999|
|        5317|   -6.111083|   -8.035949|    0.824240|    0.011999|
|        5318|   -6.113233|   -8.041744|    0.824240|    0.012000|
|        5319|   -6.115578|   -8.047670|    0.824241|    0.012000|
|        5320|   -6.118141|   -8.053730|    0.824241|    0.012000|
|        5321|   -6.120938|   -8.059926|    0.824241|    0.012000|
|        5322|   -6.123980|   -8.066260|    0.824241|    0.012000|
|        5323|   -6.127269|   -8.072733|    0.824241|    0.012000|
|        5324|   -6.130801|   -8.079341|    0.824241|    0.012000|
|        5325|   -6.134566|   -8.086082|    0.824241|    0.012000|
|        5326|   -6.138548|   -8.092956|    0.824242|    0.012000|
|        5327|   -6.142723|   -8.099959|    0.824242|    0.012000|
|        5328|   -6.147063|   -8.107085|    0.824242|    0.012000|
|        5329|   -6.151536|   -8.114329|    0.824242|    0.012000|
|        5330|   -6.156104|   -8.121682|    0.824242|    0.012000|
|        5331|   -6.160726|   -8.129135|    0.824242|    0.012000|
|        5332|   -6.165358|   -8.136677|    0.824242|    0.012000|
|        5333|   -6.169956|   -8.144299|    0.824243|    0.012001|
|        5334|   -6.174472|   -8.151987|    0.824243|    0.012001|
|        5335|   -6.178864|   -8.159729|    0.824243|    0.012001|
|        5336|   -6.183091|   -8.167515|    0.824243|    0.012001|
|        5337|   -6.187114|   -8.175331|    0.824243|    0.012001|
|        5338|   -6.190903|   -8.183167|    0.824243|    0.012001|
|        5339|   -6.194431|   -8.191014|    0.824243|    0.012001|
|        5340|   -6.197683|   -8.198861|    0.824243|    0.012001|
|        5341|   -6.200649|   -8.206704|    0.824244|    0.012001|
|        5342|   -6.203329|   -8.214536|    0.824244|    0.012001|
|        5343|   -6.205731|   -8.222352|    0.824244|    0.012001|
|        5344|   -6.207872|   -8.230148|    0.824244|    0.012001|
|        5345|   -6.209777|   -8.237924|    0.824244|    0.012001|
|        5346|   -6.211477|   -8.245679|    0.824244|    0.012002|
|        5347|   -6.213010|   -8.253417|    0.824244|    0.012002|
|        5348|   -6.214416|   -8.261145|    0.824244|    0.012002|
|        5349|   -6.215740|   -8.268862|    0.824244|    0.012002|
|        5350|   -6.217026|   -8.276571|    0.824244|    0.012002|
|        5351|   -6.218322|   -8.284275|    0.824244|    0.012002|
|        5352|   -6.219670|   -8.291975|    0.824244|    0.012002|
|        5353|   -6.221116|   -8.299677|    0.824245|    0.012002|
|        5354|   -6.222699|   -8.307383|    0.824245|    0.012002|
|        5355|   -6.224453|   -8.315100|    0.824245|    0.012002|
|        5356|   -6.226414|   -8.322830|    0.824245|    0.012002|
|        5357|   -6.228612|   -8.330576|    0.824245|    0.012002|
|        5358|   -6.231071|   -8.338341|    0.824245|    0.012002|
|        5359|   -6.233811|   -8.346128|    0.824245|    0.012002|
|        5360|   -6.236847|   -8.353943|    0.824245|    0.012002|
|        5361|   -6.240189|   -8.361781|    0.824245|    0.012002|
|        5362|   -6.243842|   -8.369633|    0.824245|    0.012002|
|        5363|   -6.247807|   -8.377494|    0.824245|    0.012002|
|        5364|   -6.252078|   -8.385356|    0.824245|    0.012002|
|        5365|   -6.256645|   -8.393220|    0.824245|    0.012002|
|        5366|   -6.261494|   -8.401089|    0.824245|    0.012002|
|        5367|   -6.266604|   -8.408951|    0.824245|    0.012002|
|        5368|   -6.271950|   -8.416794|    0.824245|    0.012002|
|        5369|   -6.277504|   -8.424608|    0.824245|    0.012002|
|        5370|   -6.283231|   -8.432382|    0.824244|    0.012002|
|        5371|   -6.289093|   -8.440106|    0.824244|    0.012002|
|        5372|   -6.295050|   -8.447766|    0.824244|    0.012002|
|        5373|   -6.301057|   -8.455359|    0.824244|    0.012002|
|        5374|   -6.307067|   -8.462886|    0.824244|    0.012002|
|        5375|   -6.313032|   -8.470337|    0.824244|    0.012002|
|        5376|   -6.318902|   -8.477700|    0.824244|    0.012002|
|        5377|   -6.324629|   -8.484966|    0.824244|    0.012002|
|        5378|   -6.330167|   -8.492128|    0.824244|    0.012002|
|        5379|   -6.335472|   -8.499179|    0.824244|    0.012002|
|        5380|   -6.340502|   -8.506105|    0.824244|    0.012001|
|        5381|   -6.345225|   -8.512898|    0.824244|    0.012001|
|        5382|   -6.349612|   -8.519549|    0.824244|    0.012001|
|        5383|   -6.353642|   -8.526052|    0.824244|    0.012001|
|        5384|   -6.357299|   -8.532400|    0.824244|    0.012001|
|        5385|   -6.360576|   -8.538590|    0.824244|    0.012001|
|        5386|   -6.363473|   -8.544617|    0.824244|    0.012001|
|        5387|   -6.365996|   -8.550480|    0.824244|    0.012001|
|        5388|   -6.368158|   -8.556179|    0.824244|    0.012001|
|        5389|   -6.369977|   -8.561717|    0.824244|    0.012001|
|        5390|   -6.371476|   -8.567095|    0.824244|    0.012001|
|        5391|   -6.372679|   -8.572314|    0.824244|    0.012000|
|        5392|   -6.373613|   -8.577373|    0.824244|    0.012000|
|        5393|   -6.374304|   -8.582269|    0.824244|    0.012000|
|        5394|   -6.374780|   -8.587002|    0.824244|    0.012000|
|        5395|   -6.375066|   -8.591571|    0.824244|    0.012000|
|        5396|   -6.375187|   -8.595971|    0.824244|    0.012000|
|        5397|   -6.375165|   -8.600197|    0.824244|    0.012000|
|        5398|   -6.375018|   -8.604245|    0.824245|    0.012000|
|        5399|   -6.374765|   -8.608109|    0.824245|    0.012000|
|        5400|   -6.374420|   -8.611784|    0.824245|    0.012000|
|        5401|   -6.373995|   -8.615265|    0.824245|    0.011999|
|        5402|   -6.373499|   -8.618550|    0.824245|    0.011999|
|        5403|   -6.372941|   -8.621639|    0.824245|    0.011999|
|        5404|   -6.372325|   -8.624533|    0.824245|    0.011999|
|        5405|   -6.371657|   -8.627236|    0.824245|    0.011999|
|        5406|   -6.370939|   -8.629753|    0.824245|    0.011999|
|        5407|   -6.370175|   -8.632094|    0.824246|    0.011999|
|        5408|   -6.369366|   -8.634271|    0.824246|    0.011999|
|        5409|   -6.368515|   -8.636296|    0.824246|    0.011999|
|        5410|   -6.367622|   -8.638185|    0.824246|    0.011999|
|        5411|   -6.366690|   -8.639957|    0.824246|    0.011998|
|        5412|   -6.365721|   -8.641628|    0.824246|    0.011998|
|        5413|   -6.364719|   -8.643219|    0.824246|    0.011998|
|        5414|   -6.363686|   -8.644748|    0.824246|    0.011998|
|        5415|   -6.362627|   -8.646233|    0.824247|    0.011998|
|        5416|   -6.361547|   -8.647690|    0.824247|    0.011998|
|        5417|   -6.360451|   -8.649135|    0.824247|    0.011998|
|        5418|   -6.359344|   -8.650579|    0.824247|    0.011998|
|        5419|   -6.358235|   -8.652031|    0.824247|    0.011998|
|        5420|   -6.357132|   -8.653497|    0.824247|    0.011998|
|        5421|   -6.356041|   -8.654980|    0.824247|    0.011998|
|        5422|   -6.354973|   -8.656479|    0.824247|    0.011998|
|        5423|   -6.353939|   -8.657992|    0.824247|    0.011998|
|        5424|   -6.352948|   -8.659510|    0.824247|    0.011998|
|        5425|   -6.352012|   -8.661026|    0.824247|    0.011998|
|        5426|   -6.351145|   -8.662529|    0.824248|    0.011998|
|        5427|   -6.350358|   -8.664006|    0.824248|    0.011998|
|        5428|   -6.349667|   -8.665444|    0.824248|    0.011998|
|        5429|   -6.349085|   -8.666830|    0.824248|    0.011998|
|        5430|   -6.348626|   -8.668149|    0.824248|    0.011998|
|        5431|   -6.348307|   -8.669392|    0.824248|    0.011998|
|        5432|   -6.348143|   -8.670547|    0.824248|    0.011998|
|        5433|   -6.348150|   -8.671606|    0.824248|    0.011998|
|        5434|   -6.348342|   -8.672564|    0.824248|    0.011998|
|        5435|   -6.348735|   -8.673418|    0.824248|    0.011998|
|        5436|   -6.349344|   -8.674167|    0.824248|    0.011998|
|        5437|   -6.350182|   -8.674813|    0.824248|    0.011998|
|        5438|   -6.351263|   -8.675360|    0.824248|    0.011998|
|        5439|   -6.352598|   -8.675814|    0.824248|    0.011998|
|        5440|   -6.354197|   -8.676184|    0.824248|    0.011998|
|        5441|   -6.356070|   -8.676476|    0.824248|    0.011998|
|        5442|   -6.358223|   -8.676703|    0.824248|    0.011998|
|        5443|   -6.360660|   -8.676877|    0.824248|    0.011998|
|        5444|   -6.363384|   -8.677010|    0.824248|    0.011998|
|        5445|   -6.366394|   -8.677112|    0.824248|    0.011998|
|        5446|   -6.369687|   -8.677194|    0.824248|    0.011998|
|        5447|   -6.373258|   -8.677265|    0.824248|    0.011998|
|        5448|   -6.377096|   -8.677332|    0.824248|    0.011998|
|        5449|   -6.381189|   -8.677401|    0.824248|    0.011998|
|        5450|   -6.385521|   -8.677477|    0.824248|    0.011998|
|        5451|   -6.390073|   -8.677561|    0.824248|    0.011998|
|        5452|   -6.394819|   -8.677654|    0.824248|    0.011998|
|        5453|   -6.399734|   -8.677757|    0.824248|    0.011998|
|        5454|   -6.404787|   -8.677866|    0.824248|    0.011999|
|        5455|   -6.409944|   -8.677978|    0.824248|    0.011999|
|        5456|   -6.415166|   -8.678088|    0.824248|    0.011999|
|        5457|   -6.420415|   -8.678192|    0.824248|    0.011999|
|        5458|   -6.425646|   -8.678286|    0.824248|    0.011999|
|        5459|   -6.430815|   -8.678367|    0.824248|    0.011999|
|        5460|   -6.435876|   -8.678430|    0.824248|    0.011999|
|        5461|   -6.440782|   -8.678470|    0.824247|    0.011999|
|        5462|   -6.445489|   -8.678479|    0.824247|    0.011999|
|        5463|   -6.449951|   -8.678452|    0.824247|    0.011999|
|        5464|   -6.454127|   -8.678383|    0.824247|    0.011999|
|        5465|   -6.457980|   -8.678266|    0.824247|    0.011999|
|        5466|   -6.461476|   -8.678100|    0.824247|    0.012000|
|        5467|   -6.464588|   -8.677881|    0.824247|    0.012000|
|        5468|   -6.467295|   -8.677609|    0.824247|    0.012000|
|        5469|   -6.469584|   -8.677284|    0.824247|    0.012000|
|        5470|   -6.471447|   -8.676908|    0.824246|    0.012000|
|        5471|   -6.472888|   -8.676482|    0.824246|    0.012000|
|        5472|   -6.473913|   -8.676008|    0.824246|    0.012000|
|        5473|   -6.474539|   -8.675491|    0.824246|    0.012000|
|        5474|   -6.474788|   -8.674934|    0.824246|    0.012000|
|        5475|   -6.474686|   -8.674340|    0.824246|    0.012000|
|        5476|   -6.474265|   -8.673714|    0.824246|    0.012000|
|        5477|   -6.473561|   -8.673060|    0.824245|    0.012000|
|        5478|   -6.472612|   -8.672383|    0.824245|    0.012000|
|        5479|   -6.471457|   -8.671687|    0.824245|    0.012000|
|        5480|   -6.470135|   -8.670977|    0.824245|    0.012000|
|        5481|   -6.468687|   -8.670257|    0.824245|    0.012000|
|        5482|   -6.467151|   -8.669531|    0.824245|    0.012000|
|        5483|   -6.465565|   -8.668805|    0.824244|    0.012001|
|        5484|   -6.463964|   -8.668082|    0.824244|    0.012001|
|        5485|   -6.462381|   -8.667368|    0.824244|    0.012001|
|        5486|   -6.460846|   -8.666668|    0.824244|    0.012001|
|        5487|   -6.459388|   -8.665986|    0.824244|    0.012001|
|        5488|   -6.458032|   -8.665328|    0.824244|    0.012001|
|        5489|   -6.456798|   -8.664699|    0.824244|    0.012001|
|        5490|   -6.455708|   -8.664105|    0.824243|    0.012001|
|        5491|   -6.454778|   -8.663551|    0.824243|    0.012001|
|        5492|   -6.454022|   -8.663044|    0.824243|    0.012001|
|        5493|   -6.453452|   -8.662590|    0.824243|    0.012001|
|        5494|   -6.453078|   -8.662195|    0.824243|    0.012001|
|        5495|   -6.452907|   -8.661865|    0.824243|    0.012001|
|        5496|   -6.452945|   -8.661608|    0.824243|    0.012001|
|        5497|   -6.453196|   -8.661430|    0.824242|    0.012001|
|        5498|   -6.453663|   -8.661337|    0.824242|    0.012000|
|        5499|   -6.454346|   -8.661335|    0.824242|    0.011986|
+-----------------------------------------------------------------------+
|Fixed CL Mode (Finite Difference)       |Value                         |
+-----------------------------------------------------------------------+
|Delta CL / Delta AoA                    |0.242415                      |
|Delta CD / Delta CL                     |0.019551                      |
|Delta CMz / Delta CL                    |0.00702709                    |
+-----------------------------------------------------------------------+
Writing Flow Meta-Data file: flow.meta

----------------------------- Solver Exit -------------------------------

Maximum number of iterations reached (ITER = 5500) before convergence.
+-----------------------------------------------------------------------+
|      Convergence Field     |     Value    |   Criterion  |  Converged |
+-----------------------------------------------------------------------+
|                    rms[Rho]|      -6.45435|         < -12|          No|
+-----------------------------------------------------------------------+
-------------------------------------------------------------------------

--------------------------- Finalizing Solver ---------------------------
Deleted CNumerics container.
Deleted CIntegration container.
Deleted CSolver container.
Deleted CIteration container.
Deleted CInterface container.
Deleted CGeometry container.
Deleted CFreeFormDefBox class.
Deleted CSurfaceMovement class.
Deleted CVolumetricMovement class.
Deleted CConfig container.
Deleted nInst container.
Deleted COutput class.
-------------------------------------------------------------------------

------------------------- Exit Success (SU2_CFD) ------------------------


-------------------------------------------------------------------------
|    ___ _   _ ___                                                      |
|   / __| | | |_  )   Release 8.0.0 "Harrier"                           |
|   \__ \ |_| |/ /                                                      |
|   |___/\___//___|   Suite (Solution Exporting Code)                   |
|                                                                       |
-------------------------------------------------------------------------
| SU2 Project Website: https://su2code.github.io                        |
|                                                                       |
| The SU2 Project is maintained by the SU2 Foundation                   |
| (http://su2foundation.org)                                            |
-------------------------------------------------------------------------
| Copyright 2012-2023, SU2 Contributors                                 |
|                                                                       |
| SU2 is free software; you can redistribute it and/or                  |
| modify it under the terms of the GNU Lesser General Public            |
| License as published by the Free Software Foundation; either          |
| version 2.1 of the License, or (at your option) any later version.    |
|                                                                       |
| SU2 is distributed in the hope that it will be useful,                |
| but WITHOUT ANY WARRANTY; without even the implied warranty of        |
| MERCHANTABILITY or FITNESS FOR A PARTICULAR PURPOSE. See the GNU      |
| Lesser General Public License for more details.                       |
|                                                                       |
| You should have received a copy of the GNU Lesser General Public      |
| License along with SU2. If not, see <http://www.gnu.org/licenses/>.   |
-------------------------------------------------------------------------

----------------- Physical Case Definition ( Zone 0 ) -------------------
Input mesh file name: mesh_RAE2822_turb_deform.su2

-------------------- Output Information ( Zone 0 ) ----------------------
The tabular file format is CSV (.csv).
Flow variables file name: flow.

------------- Config File Boundary Information ( Zone 0 ) ---------------
+-----------------------------------------------------------------------+
|                        Marker Type|                        Marker Name|
+-----------------------------------------------------------------------+
|                          Far-field|                           FARFIELD|
+-----------------------------------------------------------------------+
|                     Heat flux wall|                            AIRFOIL|
+-----------------------------------------------------------------------+
Two dimensional problem.
13937 grid points before partitioning.
22842 volume elements before partitioning.
2 surface markers.
192 boundary elements in index 0 (Marker = AIRFOIL).
40 boundary elements in index 1 (Marker = FARFIELD).
Executing the partitioning functions.
Building the graph adjacency structure.
Calling ParMETIS... graph partitioning complete (831 edge cuts).
Distributing ParMETIS coloring.
Rebalancing vertices.
Rebalancing volume element connectivity.
Rebalancing markers and surface elements.
14875 vertices including ghost points. 
23674 interior elements including halo cells. 
18780 triangles.
4894 quadrilaterals.
Establishing MPI communication patterns.
Identify vertices.
Storing a mapping from global to local point index.

------------------------- Solution Postprocessing -----------------------
Reading and storing the solution from restart_flow.
Volume output fields: COORDINATES, SOLUTION
  Info: Ignoring the following screen output fields:
  RMS_DENSITY, RMS_NU_TILDE, LIFT, DRAG
Screen output fields: INNER_ITER
  Info: Ignoring the following history output groups:
  RMS_RES, AERO_COEFF
History output group(s): ITER
Warning: No (valid) fields chosen for convergence monitoring. Convergence monitoring inactive.
Warning: No (valid) fields chosen for time convergence monitoring. Time convergence monitoring inactive.
|Paraview                           |flow.vtu                           |
|Paraview surface                   |surface_flow.vtu                   |
|CSV file                           |surface_flow.csv                   |

------------------------- Finalize Solver -------------------------
Deleted CGeometry container.
Deleted CSolver class.
Deleted CConfig container.
Deleted COutput class.

Completed in 0.014998 seconds on 6 cores.

------------------------- Exit Success (SU2_SOL) ------------------------

