
-------------------------------------------------------------------------
|    ___ _   _ ___                                                      |
|   / __| | | |_  )   Release 8.0.0 "Harrier"                           |
|   \__ \ |_| |/ /                                                      |
|   |___/\___//___|   Suite (Computational Fluid Dynamics Code)         |
|                                                                       |
-------------------------------------------------------------------------
| SU2 Project Website: https://su2code.github.io                        |
|                                                                       |
| The SU2 Project is maintained by the SU2 Foundation                   |
| (http://su2foundation.org)                                            |
-------------------------------------------------------------------------
| Copyright 2012-2023, SU2 Contributors                                 |
|                                                                       |
| SU2 is free software; you can redistribute it and/or                  |
| modify it under the terms of the GNU Lesser General Public            |
| License as published by the Free Software Foundation; either          |
| version 2.1 of the License, or (at your option) any later version.    |
|                                                                       |
| SU2 is distributed in the hope that it will be useful,                |
| but WITHOUT ANY WARRANTY; without even the implied warranty of        |
| MERCHANTABILITY or FITNESS FOR A PARTICULAR PURPOSE. See the GNU      |
| Lesser General Public License for more details.                       |
|                                                                       |
| You should have received a copy of the GNU Lesser General Public      |
| License along with SU2. If not, see <http://www.gnu.org/licenses/>.   |
-------------------------------------------------------------------------

Parsing config file for zone 0

----------------- Physical Case Definition ( Zone 0 ) -------------------
Compressible RANS equations.
Turbulence model: Spalart-Allmaras-noft2
Hybrid RANS/LES: No Hybrid RANS/LES
Mach number: 0.734.
Angle of attack (AoA): 2.31 deg, and angle of sideslip (AoS): 0 deg.
Reynolds number: 6.5e+06. Reference length 1.
Fixed CL mode, target value: 0.824.
Reading and writing binary SU2 native restart files.
Read flow solution from: solution_flow.dat.
Dimensional simulation.
The reference area is 1 m^2.
The semi-span will be computed using the max y(3D) value.
The reference length is 1 m.
Reference origin for moment evaluation is (0.25, 0, 0).
Surface(s) where the force coefficients are evaluated: AIRFOIL.

Surface(s) plotted in the output file: AIRFOIL.
Surface(s) affected by the design variables: AIRFOIL.
Input mesh file name: mesh_RAE2822_turb_deform.su2

--------------- Space Numerical Integration ( Zone 0 ) ------------------
Jameson-Schmidt-Turkel scheme (2nd order in space) for the flow inviscid terms.
JST viscous coefficients (2nd & 4th): 0.5, 0.02.
The method includes a grid stretching correction (p = 0.3).
Scalar upwind solver for the turbulence model.
First order integration in space.
Average of gradients with correction (viscous flow terms).
Average of gradients with correction (viscous turbulence terms).
Gradient for viscous and source terms: inverse-distance weighted Least-Squares.

--------------- Time Numerical Integration  ( Zone 0 ) ------------------
Local time stepping (steady state simulation).
Euler implicit method for the flow equations.
FGMRES is used for solving the linear system.
Using a ILU(0) preconditioning.
Convergence criteria of the linear solver: 1e-06.
Max number of linear iterations: 10.
No CFL adaptation.
Courant-Friedrichs-Lewy number:       10
Euler implicit time integration for the turbulence model.

------------------ Convergence Criteria  ( Zone 0 ) ---------------------
Maximum number of solver subiterations: 5500.
Begin convergence monitoring at iteration 10.
Residual minimum value: 1e-12.
Cauchy series min. value: 1e-06.
Number of Cauchy elements: 100.
Begin windowed time average at iteration 0.

-------------------- Output Information ( Zone 0 ) ----------------------
File writing frequency: 
+------------------------------------+
|                     File| Frequency|
+------------------------------------+
|                  RESTART|     10000|
|                 PARAVIEW|     10000|
|         SURFACE_PARAVIEW|     10000|
|              SURFACE_CSV|     10000|
+------------------------------------+
Writing the convergence history file every 1 inner iterations.
Writing the screen convergence history every 1 inner iterations.
The tabular file format is CSV (.csv).
Convergence history file name: history_direct.
Forces breakdown file name: forces_breakdown.dat.
Surface file name: surface_flow.
Volume file name: flow.
Restart file name: restart_flow.dat.

------------- Config File Boundary Information ( Zone 0 ) ---------------
+-----------------------------------------------------------------------+
|                        Marker Type|                        Marker Name|
+-----------------------------------------------------------------------+
|                          Far-field|                           FARFIELD|
+-----------------------------------------------------------------------+
|                     Heat flux wall|                            AIRFOIL|
+-----------------------------------------------------------------------+

-------------------- Output Preprocessing ( Zone 0 ) --------------------

WARNING: SURFACE_PRESSURE_DROP can only be computed for at least 2 surfaces (outlet, inlet, ...)

Screen output fields: INNER_ITER, RMS_DENSITY, RMS_NU_TILDE, LIFT, DRAG
History output group(s): ITER, RMS_RES, AERO_COEFF
Convergence field(s): RMS_DENSITY
Warning: No (valid) fields chosen for time convergence monitoring. Time convergence monitoring inactive.
Volume output fields: COORDINATES, SOLUTION, PRIMITIVE

------------------- Geometry Preprocessing ( Zone 0 ) -------------------
Two dimensional problem.
13937 grid points before partitioning.
22842 volume elements before partitioning.
2 surface markers.
192 boundary elements in index 0 (Marker = AIRFOIL).
40 boundary elements in index 1 (Marker = FARFIELD).
Executing the partitioning functions.
Building the graph adjacency structure.
Calling ParMETIS... graph partitioning complete (831 edge cuts).
Distributing ParMETIS coloring.
Rebalancing vertices.
Rebalancing volume element connectivity.
Rebalancing markers and surface elements.
14875 vertices including ghost points. 
23674 interior elements including halo cells. 
18780 triangles.
4894 quadrilaterals.
Establishing MPI communication patterns.
Setting point connectivity.
Renumbering points (Reverse Cuthill McKee Ordering).
Recomputing point connectivity.
Setting element connectivity.
Checking the numerical grid orientation.
All volume elements are correctly orientend.
All surface elements are correctly orientend.
Identifying edges and vertices.
Setting the control volume structure.
Area of the computational grid: 32209.9.
Searching for the closest normal neighbors to the surfaces.
Storing a mapping from global to local point index.
Compute the surface curvature.
Max K: 158.911. Mean K: 7.30958. Standard deviation K: 21.7053.
Checking for periodicity.
Computing mesh quality statistics for the dual control volumes.
+--------------------------------------------------------------+
|           Mesh Quality Metric|        Minimum|        Maximum|
+--------------------------------------------------------------+
|    Orthogonality Angle (deg.)|        75.2882|        89.9989|
|     CV Face Area Aspect Ratio|         1.0019|        3358.36|
|           CV Sub-Volume Ratio|        1.00063|        1210.62|
+--------------------------------------------------------------+
Finding max control volume width.
Communicating number of neighbors.
Wetted area = 2.02334 m.
Area projection in the x-plane = 0.123735 m, y-plane = 0.995873 m.
Max. coordinate in the x-direction = 1 m, y-direction = 0.0635296 m.
Min. coordinate in the x-direction = 0 m, y-direction = -0.0593364 m.
Computing wall distances.

-------------------- Solver Preprocessing ( Zone 0 ) --------------------
WARNING: AoA in the solution file (2.78444 deg.) +
         AoA offset in mesh file (0 deg.) = 2.78444 deg.
WARNING: SU2 will use the dCD/dCL provided in the direct solution file: 0.0185315.
WARNING: SU2 will use the dCMz/dCL provided in the direct solution file: 0.0288065.
Viscous flow: Computing pressure using the ideal gas law
based on the free-stream temperature and a density computed
from the Reynolds number.
Force coefficients computed using free-stream values.

-- Models:
+------------------------------------------------------------------------------+
|          Viscosity Model|        Conductivity Model|              Fluid Model|
+------------------------------------------------------------------------------+
|               SUTHERLAND|          CONSTANT_PRANDTL|             STANDARD_AIR|
+------------------------------------------------------------------------------+
-- Fluid properties:
+------------------------------------------------------------------------------+
|                  Name|    Dim. value|    Ref. value|      Unit|Non-dim. value|
+------------------------------------------------------------------------------+
|        Ref. Viscosity|     1.716e-05|             1|   N.s/m^2|     1.716e-05|
|      Sutherland Temp.|        273.15|             1|         K|        273.15|
|     Sutherland Const.|         110.4|             1|         K|         110.4|
+------------------------------------------------------------------------------+
|        Prandtl (Lam.)|             -|             -|         -|          0.71|
|       Prandtl (Turb.)|             -|             -|         -|           0.9|
+------------------------------------------------------------------------------+
|          Gas Constant|       287.058|             1|  N.m/kg.K|       287.058|
|      Spec. Heat Ratio|             -|             -|         -|           1.4|
+------------------------------------------------------------------------------+
-- Initial and free-stream conditions:
+------------------------------------------------------------------------------+
|                  Name|    Dim. value|    Ref. value|      Unit|Non-dim. value|
+------------------------------------------------------------------------------+
|       Static Pressure|         38515|             1|        Pa|         38515|
|               Density|      0.465631|             1|    kg/m^3|      0.465631|
|           Temperature|        288.15|             1|         K|        288.15|
|          Total Energy|        237984|             1|   m^2/s^2|        237984|
|            Velocity-X|       249.483|             1|       m/s|       249.483|
|            Velocity-Y|       12.1339|             1|       m/s|       12.1339|
|    Velocity Magnitude|       249.778|             1|       m/s|       249.778|
+------------------------------------------------------------------------------+
|             Viscosity|    1.7893e-05|             1|   N.s/m^2|    1.7893e-05|
|          Conductivity|             -|             1|   W/m^2.K|             -|
|     Turb. Kin. Energy|       233.959|             1|   m^2/s^2|       233.959|
|     Spec. Dissipation|        608834|             1|       1/s|        608834|
+------------------------------------------------------------------------------+
|           Mach Number|             -|             -|         -|         0.734|
|       Reynolds Number|             -|             -|         -|       6.5e+06|
+------------------------------------------------------------------------------+
Initialize Jacobian structure (Navier-Stokes). MG level: 0.
Initialize Jacobian structure (SA model).

------------------- Numerics Preprocessing ( Zone 0 ) -------------------

----------------- Integration Preprocessing ( Zone 0 ) ------------------

------------------- Iteration Preprocessing ( Zone 0 ) ------------------
Euler/Navier-Stokes/RANS fluid iteration.

------------------------------ Begin Solver -----------------------------

Simulation Run using the Single-zone Driver
WARNING: SU2 was not compiled for an AVX-capable architecture. Performance could be better,
         see https://su2code.github.io/docs_v7/Build-SU2-Linux-MacOS/#compiler-optimizations
+----------------------------------------------------------------+
|  Inner_Iter|    rms[Rho]|     rms[nu]|          CL|          CD|
+----------------------------------------------------------------+
|           0|   -4.231686|   -5.393706|    0.824266|    0.012327|
|           1|   -4.279289|   -5.477722|    0.824454|    0.012323|
|           2|   -4.327531|   -5.576428|    0.824561|    0.012301|
|           3|   -4.359649|   -5.686067|    0.824604|    0.012272|
|           4|   -4.378453|   -5.804162|    0.824606|    0.012245|
|           5|   -4.388880|   -5.923429|    0.824593|    0.012226|
|           6|   -4.393797|   -6.023677|    0.824582|    0.012219|
|           7|   -4.395138|   -6.075846|    0.824579|    0.012221|
|           8|   -4.394222|   -6.076344|    0.824582|    0.012230|
|           9|   -4.391512|   -6.052753|    0.824583|    0.012243|
|          10|   -4.386876|   -6.026657|    0.824575|    0.012258|
|          11|   -4.380135|   -6.003425|    0.824555|    0.012272|
|          12|   -4.371369|   -5.980783|    0.824520|    0.012284|
|          13|   -4.360865|   -5.955835|    0.824471|    0.012295|
|          14|   -4.348958|   -5.928164|    0.824410|    0.012303|
|          15|   -4.335945|   -5.899731|    0.824337|    0.012307|
|          16|   -4.322116|   -5.873197|    0.824257|    0.012309|
|          17|   -4.307826|   -5.850639|    0.824169|    0.012307|
|          18|   -4.293539|   -5.833048|    0.824078|    0.012302|
|          19|   -4.279799|   -5.820450|    0.823987|    0.012295|
|          20|   -4.267152|   -5.812130|    0.823897|    0.012285|
|          21|   -4.256040|   -5.806862|    0.823813|    0.012274|
|          22|   -4.246734|   -5.803153|    0.823737|    0.012263|
|          23|   -4.239286|   -5.799513|    0.823671|    0.012251|
|          24|   -4.233552|   -5.794808|    0.823619|    0.012241|
|          25|   -4.229249|   -5.788516|    0.823581|    0.012233|
|          26|   -4.226027|   -5.780825|    0.823557|    0.012226|
|          27|   -4.223545|   -5.772493|    0.823549|    0.012222|
|          28|   -4.221529|   -5.764597|    0.823554|    0.012222|
|          29|   -4.219792|   -5.758252|    0.823572|    0.012224|
|          30|   -4.218235|   -5.754411|    0.823600|    0.012228|
|          31|   -4.216828|   -5.753774|    0.823635|    0.012235|
|          32|   -4.215577|   -5.756745|    0.823674|    0.012245|
|          33|   -4.214505|   -5.763426|    0.823715|    0.012256|
|          34|   -4.213638|   -5.773611|    0.823755|    0.012267|
|          35|   -4.212988|   -5.786771|    0.823790|    0.012280|
|          36|   -4.212560|   -5.802052|    0.823819|    0.012293|
|          37|   -4.212344|   -5.818290|    0.823840|    0.012305|
|          38|   -4.212324|   -5.834097|    0.823852|    0.012316|
|          39|   -4.212493|   -5.848029|    0.823853|    0.012327|
|          40|   -4.212841|   -5.858852|    0.823845|    0.012336|
|          41|   -4.213371|   -5.865800|    0.823826|    0.012344|
|          42|   -4.214102|   -5.868720|    0.823798|    0.012350|
|          43|   -4.215061|   -5.868021|    0.823762|    0.012355|
|          44|   -4.216285|   -5.864448|    0.823719|    0.012359|
|          45|   -4.217799|   -5.858825|    0.823671|    0.012361|
|          46|   -4.219634|   -5.851854|    0.823619|    0.012363|
|          47|   -4.221812|   -5.844024|    0.823565|    0.012364|
|          48|   -4.224344|   -5.835639|    0.823510|    0.012364|
|          49|   -4.227223|   -5.826875|    0.823455|    0.012364|
|          50|   -4.230426|   -5.817862|    0.823402|    0.012363|
|          51|   -4.233922|   -5.808726|    0.823351|    0.012363|
|          52|   -4.237663|   -5.799650|    0.823303|    0.012362|
|          53|   -4.241604|   -5.790866|    0.823258|    0.012361|
|          54|   -4.245697|   -5.782632|    0.823216|    0.012361|
|          55|   -4.249902|   -5.775204|    0.823179|    0.012360|
|          56|   -4.254182|   -5.768804|    0.823144|    0.012359|
|          57|   -4.258520|   -5.763595|    0.823112|    0.012358|
|          58|   -4.262895|   -5.759674|    0.823083|    0.012357|
|          59|   -4.267306|   -5.757061|    0.823057|    0.012356|
|          60|   -4.271752|   -5.755706|    0.823032|    0.012354|
|          61|   -4.276233|   -5.755497|    0.823008|    0.012352|
|          62|   -4.280748|   -5.756277|    0.822986|    0.012350|
|          63|   -4.285285|   -5.757852|    0.822964|    0.012346|
|          64|   -4.289831|   -5.760007|    0.822943|    0.012342|
|          65|   -4.294371|   -5.762534|    0.822922|    0.012338|
|          66|   -4.298894|   -5.765243|    0.822901|    0.012333|
|          67|   -4.303390|   -5.767963|    0.822881|    0.012327|
|          68|   -4.307858|   -5.770561|    0.822861|    0.012321|
|          69|   -4.312307|   -5.772947|    0.822841|    0.012314|
|          70|   -4.316748|   -5.775069|    0.822823|    0.012306|
|          71|   -4.321192|   -5.776919|    0.822804|    0.012299|
|          72|   -4.325646|   -5.778496|    0.822787|    0.012290|
|          73|   -4.330112|   -5.779830|    0.822771|    0.012282|
|          74|   -4.334580|   -5.780965|    0.822757|    0.012273|
|          75|   -4.339029|   -5.781947|    0.822744|    0.012265|
|          76|   -4.343430|   -5.782825|    0.822732|    0.012256|
|          77|   -4.347748|   -5.783661|    0.822722|    0.012247|
|          78|   -4.351949|   -5.784464|    0.822714|    0.012239|
|          79|   -4.355999|   -5.785272|    0.822707|    0.012230|
|          80|   -4.359870|   -5.786133|    0.822702|    0.012222|
|          81|   -4.363543|   -5.787036|    0.822698|    0.012214|
|          82|   -4.367003|   -5.788005|    0.822696|    0.012206|
|          83|   -4.370247|   -5.789052|    0.822694|    0.012199|
|          84|   -4.373272|   -5.790168|    0.822693|    0.012191|
|          85|   -4.376080|   -5.791362|    0.822692|    0.012184|
|          86|   -4.378673|   -5.792637|    0.822692|    0.012177|
|          87|   -4.381048|   -5.793994|    0.822692|    0.012170|
|          88|   -4.383203|   -5.795436|    0.822691|    0.012164|
|          89|   -4.385135|   -5.796963|    0.822691|    0.012157|
|          90|   -4.386839|   -5.798579|    0.822689|    0.012151|
|          91|   -4.388314|   -5.800297|    0.822687|    0.012145|
|          92|   -4.389557|   -5.802109|    0.822684|    0.012139|
|          93|   -4.390568|   -5.804026|    0.822681|    0.012132|
|          94|   -4.391346|   -5.806076|    0.822677|    0.012126|
|          95|   -4.391892|   -5.808243|    0.822672|    0.012120|
|          96|   -4.392208|   -5.810540|    0.822666|    0.012113|
|          97|   -4.392292|   -5.812984|    0.822660|    0.012107|
|          98|   -4.392143|   -5.815582|    0.822653|    0.012100|
|          99|   -4.391761|   -5.818343|    0.822647|    0.012094|
|         100|   -4.391143|   -5.821285|    0.822640|    0.012087|
|         101|   -4.390289|   -5.824414|    0.822632|    0.012178|
+-----------------------------------------------------------------------+
|Fixed CL Mode                           |Value                         |
+-----------------------------------------------------------------------+
|Current CL                              |0.822632                      |
|Target CL                               |0.824                         |
|Previous AOA                            |2.78444                       |
|Changed AoA by                          |0.00679975                    |
+-----------------------------------------------------------------------+
+----------------------------------------------------------------+
|  Inner_Iter|    rms[Rho]|     rms[nu]|          CL|          CD|
+----------------------------------------------------------------+
|         102|   -2.360891|   -5.816437|    0.822626|    0.012171|
|         103|   -2.745444|   -5.825626|    0.822621|    0.012165|
|         104|   -2.989797|   -5.830953|    0.822617|    0.012158|
|         105|   -3.068871|   -5.835731|    0.822613|    0.012151|
|         106|   -3.122714|   -5.840481|    0.822611|    0.012145|
|         107|   -3.192646|   -5.845315|    0.822610|    0.012139|
|         108|   -3.279239|   -5.850277|    0.822611|    0.012133|
|         109|   -3.369749|   -5.855366|    0.822613|    0.012127|
|         110|   -3.447507|   -5.860595|    0.822617|    0.012121|
|         111|   -3.503942|   -5.865958|    0.822623|    0.012116|
|         112|   -3.540682|   -5.871446|    0.822630|    0.012111|
|         113|   -3.561716|   -5.877056|    0.822639|    0.012107|
|         114|   -3.571030|   -5.882795|    0.822649|    0.012103|
|         115|   -3.574537|   -5.888661|    0.822660|    0.012100|
|         116|   -3.578842|   -5.894637|    0.822673|    0.012097|
|         117|   -3.588346|   -5.900706|    0.822687|    0.012095|
|         118|   -3.604056|   -5.906846|    0.822701|    0.012093|
|         119|   -3.624155|   -5.913031|    0.822716|    0.012092|
|         120|   -3.645484|   -5.919241|    0.822732|    0.012091|
|         121|   -3.665373|   -5.925450|    0.822747|    0.012091|
|         122|   -3.682939|   -5.931623|    0.822763|    0.012091|
|         123|   -3.699014|   -5.937717|    0.822778|    0.012092|
|         124|   -3.714994|   -5.943682|    0.822793|    0.012093|
|         125|   -3.731746|   -5.949476|    0.822808|    0.012095|
|         126|   -3.749238|   -5.955066|    0.822822|    0.012097|
|         127|   -3.766762|   -5.960414|    0.822835|    0.012099|
|         128|   -3.783363|   -5.965493|    0.822847|    0.012101|
|         129|   -3.798168|   -5.970285|    0.822859|    0.012104|
|         130|   -3.810571|   -5.974779|    0.822870|    0.012106|
|         131|   -3.820351|   -5.978968|    0.822880|    0.012109|
|         132|   -3.827749|   -5.982850|    0.822890|    0.012112|
|         133|   -3.833461|   -5.986431|    0.822899|    0.012115|
|         134|   -3.838490|   -5.989713|    0.822907|    0.012118|
|         135|   -3.843886|   -5.992713|    0.822916|    0.012121|
|         136|   -3.850516|   -5.995444|    0.822925|    0.012124|
|         137|   -3.858910|   -5.997911|    0.822934|    0.012127|
|         138|   -3.869204|   -6.000131|    0.822943|    0.012131|
|         139|   -3.881144|   -6.002122|    0.822953|    0.012134|
|         140|   -3.894128|   -6.003898|    0.822963|    0.012137|
|         141|   -3.907299|   -6.005483|    0.822975|    0.012140|
|         142|   -3.919708|   -6.006899|    0.822987|    0.012144|
|         143|   -3.930546|   -6.008185|    0.823001|    0.012147|
|         144|   -3.939382|   -6.009346|    0.823017|    0.012151|
|         145|   -3.946290|   -6.010406|    0.823034|    0.012155|
|         146|   -3.951812|   -6.011396|    0.823053|    0.012159|
|         147|   -3.956760|   -6.012348|    0.823073|    0.012163|
|         148|   -3.961966|   -6.013277|    0.823096|    0.012168|
|         149|   -3.968085|   -6.014216|    0.823121|    0.012173|
|         150|   -3.975479|   -6.015185|    0.823148|    0.012178|
|         151|   -3.984208|   -6.016202|    0.823177|    0.012183|
|         152|   -3.994071|   -6.017297|    0.823208|    0.012188|
|         153|   -4.004677|   -6.018501|    0.823242|    0.012194|
|         154|   -4.015559|   -6.019836|    0.823278|    0.012200|
|         155|   -4.026273|   -6.021318|    0.823316|    0.012207|
|         156|   -4.036485|   -6.022967|    0.823356|    0.012213|
|         157|   -4.046022|   -6.024808|    0.823398|    0.012220|
|         158|   -4.054883|   -6.026863|    0.823442|    0.012227|
|         159|   -4.063196|   -6.029152|    0.823488|    0.012235|
|         160|   -4.071159|   -6.031681|    0.823536|    0.012242|
|         161|   -4.078978|   -6.034473|    0.823585|    0.012250|
|         162|   -4.086826|   -6.037550|    0.823635|    0.012257|
|         163|   -4.094811|   -6.040925|    0.823686|    0.012265|
|         164|   -4.102976|   -6.044613|    0.823738|    0.012273|
|         165|   -4.111309|   -6.048620|    0.823791|    0.012280|
|         166|   -4.119764|   -6.052954|    0.823843|    0.012288|
|         167|   -4.128285|   -6.057625|    0.823896|    0.012296|
|         168|   -4.136818|   -6.062643|    0.823948|    0.012303|
|         169|   -4.145310|   -6.068011|    0.824000|    0.012310|
|         170|   -4.153723|   -6.073708|    0.824050|    0.012317|
|         171|   -4.162034|   -6.079740|    0.824100|    0.012324|
|         172|   -4.170223|   -6.086109|    0.824147|    0.012330|
|         173|   -4.178264|   -6.092800|    0.824193|    0.012336|
|         174|   -4.186124|   -6.099796|    0.824236|    0.012342|
|         175|   -4.193763|   -6.107088|    0.824277|    0.012347|
|         176|   -4.201131|   -6.114655|    0.824314|    0.012352|
|         177|   -4.208178|   -6.122472|    0.824349|    0.012356|
|         178|   -4.214862|   -6.130509|    0.824381|    0.012361|
|         179|   -4.221141|   -6.138730|    0.824409|    0.012364|
|         180|   -4.226989|   -6.147096|    0.824433|    0.012367|
|         181|   -4.232386|   -6.155565|    0.824454|    0.012370|
|         182|   -4.237335|   -6.164089|    0.824471|    0.012373|
|         183|   -4.241844|   -6.172624|    0.824484|    0.012375|
|         184|   -4.245934|   -6.181147|    0.824493|    0.012376|
|         185|   -4.249638|   -6.189637|    0.824499|    0.012377|
|         186|   -4.253002|   -6.198091|    0.824500|    0.012378|
|         187|   -4.256078|   -6.206508|    0.824498|    0.012378|
|         188|   -4.258928|   -6.214890|    0.824493|    0.012378|
|         189|   -4.261618|   -6.223257|    0.824484|    0.012378|
|         190|   -4.264215|   -6.231631|    0.824471|    0.012377|
|         191|   -4.266787|   -6.240028|    0.824456|    0.012376|
|         192|   -4.269397|   -6.248488|    0.824438|    0.012375|
|         193|   -4.272114|   -6.257047|    0.824417|    0.012373|
|         194|   -4.274988|   -6.265740|    0.824394|    0.012372|
|         195|   -4.278056|   -6.274591|    0.824368|    0.012369|
|         196|   -4.281370|   -6.283646|    0.824340|    0.012367|
|         197|   -4.284948|   -6.292952|    0.824310|    0.012364|
|         198|   -4.288810|   -6.302544|    0.824279|    0.012362|
|         199|   -4.292965|   -6.312449|    0.824246|    0.012359|
|         200|   -4.297418|   -6.322691|    0.824212|    0.012355|
|         201|   -4.302174|   -6.333234|    0.824178|    0.012336|
+-----------------------------------------------------------------------+
|Fixed CL Mode                           |Value                         |
+-----------------------------------------------------------------------+
|Current CL                              |0.824178                      |
|Target CL                               |0.824                         |
|Previous AOA                            |2.79124                       |
|Changed AoA by                          |-0.00106248                   |
+-----------------------------------------------------------------------+
+----------------------------------------------------------------+
|  Inner_Iter|    rms[Rho]|     rms[nu]|          CL|          CD|
+----------------------------------------------------------------+
|         202|   -3.166106|   -6.341056|    0.824142|    0.012333|
|         203|   -3.549233|   -6.353581|    0.824105|    0.012329|
|         204|   -3.792220|   -6.365249|    0.824069|    0.012325|
|         205|   -3.869518|   -6.377005|    0.824031|    0.012321|
|         206|   -3.918713|   -6.388979|    0.823994|    0.012316|
|         207|   -3.979731|   -6.401192|    0.823957|    0.012312|
|         208|   -4.050773|   -6.413585|    0.823921|    0.012307|
|         209|   -4.117449|   -6.426076|    0.823884|    0.012303|
|         210|   -4.166087|   -6.438574|    0.823849|    0.012298|
|         211|   -4.194740|   -6.450952|    0.823814|    0.012293|
|         212|   -4.209610|   -6.463044|    0.823781|    0.012288|
|         213|   -4.216399|   -6.474672|    0.823748|    0.012283|
|         214|   -4.218821|   -6.485675|    0.823718|    0.012278|
|         215|   -4.220160|   -6.495914|    0.823688|    0.012273|
|         216|   -4.223312|   -6.505270|    0.823661|    0.012268|
|         217|   -4.229874|   -6.513647|    0.823635|    0.012263|
|         218|   -4.239695|   -6.521007|    0.823611|    0.012257|
|         219|   -4.251274|   -6.527295|    0.823590|    0.012253|
|         220|   -4.262683|   -6.532566|    0.823571|    0.012248|
|         221|   -4.272566|   -6.536880|    0.823554|    0.012243|
|         222|   -4.280636|   -6.540317|    0.823539|    0.012238|
|         223|   -4.287461|   -6.542973|    0.823527|    0.012234|
|         224|   -4.293860|   -6.544958|    0.823517|    0.012229|
|         225|   -4.300428|   -6.546397|    0.823510|    0.012225|
|         226|   -4.307391|   -6.547419|    0.823505|    0.012221|
|         227|   -4.314706|   -6.548152|    0.823503|    0.012217|
|         228|   -4.322201|   -6.548719|    0.823503|    0.012213|
|         229|   -4.329672|   -6.549232|    0.823506|    0.012210|
|         230|   -4.336923|   -6.549795|    0.823510|    0.012207|
|         231|   -4.343805|   -6.550500|    0.823517|    0.012204|
|         232|   -4.350257|   -6.551422|    0.823526|    0.012201|
|         233|   -4.356343|   -6.552618|    0.823537|    0.012198|
|         234|   -4.362244|   -6.554109|    0.823550|    0.012196|
|         235|   -4.368214|   -6.555828|    0.823564|    0.012194|
|         236|   -4.374513|   -6.557748|    0.823580|    0.012192|
|         237|   -4.381336|   -6.560000|    0.823597|    0.012190|
|         238|   -4.388776|   -6.562573|    0.823615|    0.012188|
|         239|   -4.396803|   -6.565438|    0.823634|    0.012187|
|         240|   -4.405269|   -6.568557|    0.823653|    0.012185|
|         241|   -4.413941|   -6.571881|    0.823673|    0.012184|
|         242|   -4.422544|   -6.575327|    0.823694|    0.012183|
|         243|   -4.430822|   -6.578851|    0.823714|    0.012182|
|         244|   -4.438593|   -6.582399|    0.823734|    0.012182|
|         245|   -4.445791|   -6.585898|    0.823754|    0.012181|
|         246|   -4.452461|   -6.589279|    0.823774|    0.012180|
|         247|   -4.458726|   -6.592485|    0.823793|    0.012180|
|         248|   -4.464741|   -6.595473|    0.823811|    0.012179|
|         249|   -4.470643|   -6.598219|    0.823829|    0.012179|
|         250|   -4.476511|   -6.600690|    0.823845|    0.012178|
|         251|   -4.482357|   -6.602920|    0.823861|    0.012178|
|         252|   -4.488133|   -6.604951|    0.823875|    0.012178|
|         253|   -4.493752|   -6.606818|    0.823888|    0.012177|
|         254|   -4.499115|   -6.608567|    0.823900|    0.012177|
|         255|   -4.504143|   -6.610254|    0.823910|    0.012177|
|         256|   -4.508791|   -6.611938|    0.823920|    0.012176|
|         257|   -4.513059|   -6.613680|    0.823927|    0.012176|
|         258|   -4.516983|   -6.615538|    0.823934|    0.012176|
|         259|   -4.520630|   -6.617567|    0.823939|    0.012176|
|         260|   -4.524075|   -6.619812|    0.823943|    0.012175|
|         261|   -4.527396|   -6.622314|    0.823946|    0.012175|
|         262|   -4.530656|   -6.625097|    0.823948|    0.012175|
|         263|   -4.533901|   -6.628176|    0.823949|    0.012175|
|         264|   -4.537162|   -6.631489|    0.823949|    0.012175|
|         265|   -4.540451|   -6.635103|    0.823948|    0.012175|
|         266|   -4.543772|   -6.638928|    0.823947|    0.012175|
|         267|   -4.547117|   -6.643020|    0.823944|    0.012175|
|         268|   -4.550474|   -6.647361|    0.823942|    0.012175|
|         269|   -4.553827|   -6.651881|    0.823939|    0.012175|
|         270|   -4.557156|   -6.656577|    0.823935|    0.012176|
|         271|   -4.560435|   -6.661404|    0.823932|    0.012176|
|         272|   -4.563636|   -6.666309|    0.823928|    0.012177|
|         273|   -4.566727|   -6.671249|    0.823925|    0.012178|
|         274|   -4.569677|   -6.676191|    0.823922|    0.012179|
|         275|   -4.572438|   -6.681117|    0.823919|    0.012179|
|         276|   -4.574970|   -6.686024|    0.823916|    0.012181|
|         277|   -4.577234|   -6.690923|    0.823914|    0.012182|
|         278|   -4.579190|   -6.695803|    0.823912|    0.012183|
|         279|   -4.580805|   -6.700686|    0.823910|    0.012185|
|         280|   -4.582046|   -6.705605|    0.823909|    0.012186|
|         281|   -4.582894|   -6.710599|    0.823909|    0.012188|
|         282|   -4.583333|   -6.715717|    0.823909|    0.012190|
|         283|   -4.583362|   -6.720993|    0.823909|    0.012192|
|         284|   -4.582973|   -6.726461|    0.823910|    0.012194|
|         285|   -4.582176|   -6.732158|    0.823912|    0.012197|
|         286|   -4.580987|   -6.738110|    0.823914|    0.012199|
|         287|   -4.579431|   -6.744342|    0.823916|    0.012201|
|         288|   -4.577540|   -6.750849|    0.823918|    0.012204|
|         289|   -4.575354|   -6.757622|    0.823921|    0.012206|
|         290|   -4.572917|   -6.764634|    0.823925|    0.012209|
|         291|   -4.570273|   -6.771826|    0.823928|    0.012212|
|         292|   -4.567473|   -6.779185|    0.823931|    0.012214|
|         293|   -4.564564|   -6.786636|    0.823935|    0.012217|
|         294|   -4.561596|   -6.794095|    0.823938|    0.012220|
|         295|   -4.558615|   -6.801450|    0.823942|    0.012223|
|         296|   -4.555669|   -6.808588|    0.823945|    0.012225|
|         297|   -4.552799|   -6.815389|    0.823948|    0.012228|
|         298|   -4.550045|   -6.821731|    0.823951|    0.012230|
|         299|   -4.547441|   -6.827500|    0.823953|    0.012233|
|         300|   -4.545019|   -6.832590|    0.823956|    0.012235|
|         301|   -4.542805|   -6.836911|    0.823958|    0.012241|
+-----------------------------------------------------------------------+
|Fixed CL Mode                           |Value                         |
+-----------------------------------------------------------------------+
|Current CL                              |0.823958                      |
|Target CL                               |0.824                         |
|Previous AOA                            |2.79018                       |
|Changed AoA by                          |0.000221702                   |
+-----------------------------------------------------------------------+
+----------------------------------------------------------------+
|  Inner_Iter|    rms[Rho]|     rms[nu]|          CL|          CD|
+----------------------------------------------------------------+
|         302|   -3.839063|   -6.838989|    0.823959|    0.012243|
|         303|   -4.182000|   -6.842204|    0.823961|    0.012245|
|         304|   -4.343121|   -6.844043|    0.823962|    0.012247|
|         305|   -4.380107|   -6.844912|    0.823962|    0.012249|
|         306|   -4.403736|   -6.844894|    0.823962|    0.012250|
|         307|   -4.431839|   -6.844047|    0.823962|    0.012252|
|         308|   -4.460671|   -6.842436|    0.823962|    0.012253|
|         309|   -4.484399|   -6.840142|    0.823961|    0.012255|
|         310|   -4.500735|   -6.837255|    0.823960|    0.012256|
|         311|   -4.511064|   -6.833868|    0.823958|    0.012256|
|         312|   -4.517596|   -6.830081|    0.823956|    0.012257|
|         313|   -4.521783|   -6.825989|    0.823954|    0.012258|
|         314|   -4.524494|   -6.821690|    0.823952|    0.012258|
|         315|   -4.526485|   -6.817269|    0.823950|    0.012258|
|         316|   -4.528467|   -6.812794|    0.823947|    0.012258|
|         317|   -4.530914|   -6.808326|    0.823944|    0.012258|
|         318|   -4.533953|   -6.803925|    0.823941|    0.012258|
|         319|   -4.537436|   -6.799649|    0.823938|    0.012258|
|         320|   -4.541123|   -6.795547|    0.823935|    0.012257|
|         321|   -4.544848|   -6.791657|    0.823931|    0.012256|
|         322|   -4.548579|   -6.788005|    0.823928|    0.012255|
|         323|   -4.552376|   -6.784611|    0.823924|    0.012255|
|         324|   -4.556317|   -6.781483|    0.823921|    0.012253|
|         325|   -4.560443|   -6.778629|    0.823917|    0.012252|
|         326|   -4.564755|   -6.776053|    0.823913|    0.012251|
|         327|   -4.569232|   -6.773753|    0.823910|    0.012250|
|         328|   -4.573851|   -6.771723|    0.823906|    0.012248|
|         329|   -4.578597|   -6.769953|    0.823903|    0.012247|
|         330|   -4.583456|   -6.768431|    0.823899|    0.012245|
|         331|   -4.588417|   -6.767143|    0.823895|    0.012244|
|         332|   -4.593469|   -6.766078|    0.823892|    0.012242|
|         333|   -4.598605|   -6.765211|    0.823888|    0.012240|
|         334|   -4.603820|   -6.764523|    0.823885|    0.012238|
|         335|   -4.609109|   -6.763995|    0.823882|    0.012237|
|         336|   -4.614459|   -6.763609|    0.823879|    0.012235|
|         337|   -4.619852|   -6.763346|    0.823876|    0.012233|
|         338|   -4.625254|   -6.763190|    0.823873|    0.012231|
|         339|   -4.630621|   -6.763125|    0.823870|    0.012230|
|         340|   -4.635897|   -6.763138|    0.823867|    0.012228|
|         341|   -4.641022|   -6.763218|    0.823865|    0.012226|
|         342|   -4.645933|   -6.763354|    0.823862|    0.012224|
|         343|   -4.650576|   -6.763535|    0.823860|    0.012223|
|         344|   -4.654906|   -6.763756|    0.823858|    0.012221|
|         345|   -4.658896|   -6.764021|    0.823857|    0.012219|
|         346|   -4.662529|   -6.764332|    0.823855|    0.012218|
|         347|   -4.665799|   -6.764687|    0.823854|    0.012216|
|         348|   -4.668706|   -6.765090|    0.823854|    0.012215|
|         349|   -4.671248|   -6.765543|    0.823853|    0.012213|
|         350|   -4.673421|   -6.766053|    0.823853|    0.012212|
|         351|   -4.675219|   -6.766626|    0.823853|    0.012211|
|         352|   -4.676634|   -6.767270|    0.823854|    0.012209|
|         353|   -4.677658|   -6.767994|    0.823855|    0.012208|
|         354|   -4.678290|   -6.768807|    0.823856|    0.012207|
|         355|   -4.678537|   -6.769720|    0.823858|    0.012206|
|         356|   -4.678412|   -6.770740|    0.823860|    0.012205|
|         357|   -4.677939|   -6.771877|    0.823862|    0.012204|
|         358|   -4.677148|   -6.773141|    0.823865|    0.012203|
|         359|   -4.676075|   -6.774541|    0.823869|    0.012203|
|         360|   -4.674759|   -6.776086|    0.823872|    0.012202|
|         361|   -4.673242|   -6.777783|    0.823876|    0.012201|
|         362|   -4.671567|   -6.779635|    0.823880|    0.012201|
|         363|   -4.669773|   -6.781648|    0.823885|    0.012200|
|         364|   -4.667904|   -6.783822|    0.823890|    0.012200|
|         365|   -4.665999|   -6.786157|    0.823895|    0.012199|
|         366|   -4.664099|   -6.788647|    0.823900|    0.012199|
|         367|   -4.662243|   -6.791288|    0.823905|    0.012198|
|         368|   -4.660469|   -6.794072|    0.823911|    0.012198|
|         369|   -4.658813|   -6.796990|    0.823916|    0.012198|
|         370|   -4.657313|   -6.800029|    0.823922|    0.012198|
|         371|   -4.656001|   -6.803175|    0.823927|    0.012198|
|         372|   -4.654908|   -6.806410|    0.823933|    0.012198|
|         373|   -4.654065|   -6.809719|    0.823938|    0.012197|
|         374|   -4.653498|   -6.813082|    0.823944|    0.012197|
|         375|   -4.653231|   -6.816482|    0.823949|    0.012197|
|         376|   -4.653286|   -6.819903|    0.823954|    0.012197|
|         377|   -4.653684|   -6.823329|    0.823958|    0.012197|
|         378|   -4.654440|   -6.826746|    0.823963|    0.012197|
|         379|   -4.655569|   -6.830142|    0.823967|    0.012197|
|         380|   -4.657084|   -6.833510|    0.823970|    0.012198|
|         381|   -4.658992|   -6.836843|    0.823973|    0.012198|
|         382|   -4.661301|   -6.840140|    0.823976|    0.012198|
|         383|   -4.664014|   -6.843401|    0.823979|    0.012198|
|         384|   -4.667133|   -6.846630|    0.823981|    0.012198|
|         385|   -4.670656|   -6.849834|    0.823982|    0.012198|
|         386|   -4.674577|   -6.853019|    0.823983|    0.012198|
|         387|   -4.678890|   -6.856196|    0.823984|    0.012198|
|         388|   -4.683582|   -6.859375|    0.823984|    0.012198|
|         389|   -4.688639|   -6.862565|    0.823984|    0.012198|
|         390|   -4.694043|   -6.865777|    0.823983|    0.012198|
|         391|   -4.699773|   -6.869019|    0.823982|    0.012198|
|         392|   -4.705802|   -6.872295|    0.823981|    0.012198|
|         393|   -4.712102|   -6.875610|    0.823979|    0.012198|
|         394|   -4.718639|   -6.878964|    0.823976|    0.012198|
|         395|   -4.725377|   -6.882355|    0.823974|    0.012198|
|         396|   -4.732275|   -6.885777|    0.823971|    0.012198|
|         397|   -4.739287|   -6.889223|    0.823967|    0.012199|
|         398|   -4.746368|   -6.892681|    0.823964|    0.012199|
|         399|   -4.753466|   -6.896138|    0.823960|    0.012199|
|         400|   -4.760528|   -6.899578|    0.823956|    0.012199|
|         401|   -4.767501|   -6.902986|    0.823951|    0.012202|
+-----------------------------------------------------------------------+
|Fixed CL Mode                           |Value                         |
+-----------------------------------------------------------------------+
|Current CL                              |0.823951                      |
|Target CL                               |0.824                         |
|Previous AOA                            |2.7904                        |
|Changed AoA by                          |0.000222131                   |
+-----------------------------------------------------------------------+
+----------------------------------------------------------------+
|  Inner_Iter|    rms[Rho]|     rms[nu]|          CL|          CD|
+----------------------------------------------------------------+
|         402|   -3.843619|   -6.904346|    0.823947|    0.012202|
|         403|   -4.213317|   -6.908558|    0.823942|    0.012202|
|         404|   -4.423490|   -6.912043|    0.823937|    0.012203|
|         405|   -4.483278|   -6.915306|    0.823932|    0.012203|
|         406|   -4.522598|   -6.918412|    0.823927|    0.012203|
|         407|   -4.570779|   -6.921371|    0.823921|    0.012203|
|         408|   -4.624424|   -6.924185|    0.823916|    0.012203|
|         409|   -4.673188|   -6.926856|    0.823910|    0.012204|
|         410|   -4.709888|   -6.929386|    0.823905|    0.012204|
|         411|   -4.734679|   -6.931780|    0.823899|    0.012204|
|         412|   -4.751014|   -6.934045|    0.823894|    0.012205|
|         413|   -4.761450|   -6.936190|    0.823888|    0.012205|
|         414|   -4.767575|   -6.938228|    0.823883|    0.012205|
|         415|   -4.771122|   -6.940174|    0.823878|    0.012206|
|         416|   -4.773978|   -6.942041|    0.823872|    0.012206|
|         417|   -4.777469|   -6.943843|    0.823867|    0.012207|
|         418|   -4.781936|   -6.945592|    0.823861|    0.012207|
|         419|   -4.786919|   -6.947305|    0.823856|    0.012208|
|         420|   -4.791686|   -6.948993|    0.823851|    0.012208|
|         421|   -4.795744|   -6.950668|    0.823846|    0.012209|
|         422|   -4.799018|   -6.952340|    0.823841|    0.012209|
|         423|   -4.801712|   -6.954017|    0.823836|    0.012210|
|         424|   -4.804054|   -6.955706|    0.823831|    0.012210|
|         425|   -4.806131|   -6.957415|    0.823827|    0.012211|
|         426|   -4.807887|   -6.959148|    0.823822|    0.012211|
|         427|   -4.809216|   -6.960908|    0.823818|    0.012212|
|         428|   -4.810039|   -6.962697|    0.823814|    0.012212|
|         429|   -4.810351|   -6.964516|    0.823809|    0.012213|
|         430|   -4.810208|   -6.966364|    0.823805|    0.012213|
|         431|   -4.809714|   -6.968238|    0.823802|    0.012214|
|         432|   -4.809000|   -6.970137|    0.823798|    0.012214|
|         433|   -4.808214|   -6.972056|    0.823794|    0.012215|
|         434|   -4.807493|   -6.973991|    0.823791|    0.012215|
|         435|   -4.806954|   -6.975935|    0.823788|    0.012216|
|         436|   -4.806672|   -6.977883|    0.823785|    0.012216|
|         437|   -4.806680|   -6.979830|    0.823782|    0.012217|
|         438|   -4.806966|   -6.981769|    0.823779|    0.012217|
|         439|   -4.807494|   -6.983697|    0.823777|    0.012217|
|         440|   -4.808208|   -6.985607|    0.823775|    0.012218|
|         441|   -4.809055|   -6.987498|    0.823772|    0.012218|
|         442|   -4.809994|   -6.989365|    0.823771|    0.012219|
|         443|   -4.811011|   -6.991207|    0.823769|    0.012219|
|         444|   -4.812120|   -6.993022|    0.823767|    0.012219|
|         445|   -4.813363|   -6.994810|    0.823766|    0.012220|
|         446|   -4.814802|   -6.996571|    0.823765|    0.012220|
|         447|   -4.816508|   -6.998305|    0.823764|    0.012220|
|         448|   -4.818543|   -7.000014|    0.823763|    0.012220|
|         449|   -4.820956|   -7.001698|    0.823762|    0.012221|
|         450|   -4.823775|   -7.003355|    0.823762|    0.012221|
|         451|   -4.827009|   -7.004991|    0.823761|    0.012221|
|         452|   -4.830651|   -7.006611|    0.823761|    0.012222|
|         453|   -4.834684|   -7.008217|    0.823761|    0.012222|
|         454|   -4.839090|   -7.009815|    0.823762|    0.012222|
|         455|   -4.843852|   -7.011410|    0.823762|    0.012222|
|         456|   -4.848958|   -7.013007|    0.823762|    0.012223|
|         457|   -4.854405|   -7.014612|    0.823763|    0.012223|
|         458|   -4.860190|   -7.016230|    0.823764|    0.012223|
|         459|   -4.866315|   -7.017868|    0.823765|    0.012223|
|         460|   -4.872781|   -7.019534|    0.823766|    0.012224|
|         461|   -4.879583|   -7.021234|    0.823767|    0.012224|
|         462|   -4.886713|   -7.022977|    0.823768|    0.012224|
|         463|   -4.894154|   -7.024769|    0.823769|    0.012224|
|         464|   -4.901883|   -7.026618|    0.823771|    0.012225|
|         465|   -4.909870|   -7.028529|    0.823772|    0.012225|
|         466|   -4.918079|   -7.030513|    0.823773|    0.012225|
|         467|   -4.926468|   -7.032574|    0.823775|    0.012225|
|         468|   -4.934993|   -7.034719|    0.823777|    0.012225|
|         469|   -4.943603|   -7.036957|    0.823778|    0.012226|
|         470|   -4.952243|   -7.039296|    0.823780|    0.012226|
|         471|   -4.960856|   -7.041741|    0.823781|    0.012226|
|         472|   -4.969381|   -7.044295|    0.823783|    0.012226|
|         473|   -4.977752|   -7.046962|    0.823784|    0.012226|
|         474|   -4.985902|   -7.049742|    0.823786|    0.012227|
|         475|   -4.993764|   -7.052638|    0.823787|    0.012227|
|         476|   -5.001269|   -7.055648|    0.823789|    0.012227|
|         477|   -5.008353|   -7.058772|    0.823790|    0.012227|
|         478|   -5.014954|   -7.062007|    0.823791|    0.012227|
|         479|   -5.021020|   -7.065353|    0.823792|    0.012227|
|         480|   -5.026506|   -7.068804|    0.823793|    0.012227|
|         481|   -5.031380|   -7.072358|    0.823794|    0.012227|
|         482|   -5.035621|   -7.076010|    0.823795|    0.012227|
|         483|   -5.039222|   -7.079755|    0.823795|    0.012227|
|         484|   -5.042192|   -7.083589|    0.823796|    0.012227|
|         485|   -5.044553|   -7.087506|    0.823796|    0.012227|
|         486|   -5.046338|   -7.091503|    0.823797|    0.012227|
|         487|   -5.047596|   -7.095573|    0.823797|    0.012227|
|         488|   -5.048380|   -7.099713|    0.823797|    0.012226|
|         489|   -5.048754|   -7.103919|    0.823797|    0.012226|
|         490|   -5.048788|   -7.108188|    0.823797|    0.012226|
|         491|   -5.048551|   -7.112516|    0.823797|    0.012226|
|         492|   -5.048116|   -7.116901|    0.823796|    0.012225|
|         493|   -5.047554|   -7.121342|    0.823796|    0.012225|
|         494|   -5.046934|   -7.125839|    0.823795|    0.012225|
|         495|   -5.046321|   -7.130390|    0.823795|    0.012224|
|         496|   -5.045777|   -7.134996|    0.823794|    0.012224|
|         497|   -5.045357|   -7.139659|    0.823793|    0.012223|
|         498|   -5.045112|   -7.144378|    0.823792|    0.012223|
|         499|   -5.045088|   -7.149156|    0.823791|    0.012222|
|         500|   -5.045325|   -7.153994|    0.823790|    0.012222|
|         501|   -5.045860|   -7.158892|    0.823788|    0.012236|
+-----------------------------------------------------------------------+
|Fixed CL Mode                           |Value                         |
+-----------------------------------------------------------------------+
|Current CL                              |0.823788                      |
|Target CL                               |0.824                         |
|Previous AOA                            |2.79062                       |
|Changed AoA by                          |0.00105218                    |
+-----------------------------------------------------------------------+
+----------------------------------------------------------------+
|  Inner_Iter|    rms[Rho]|     rms[nu]|          CL|          CD|
+----------------------------------------------------------------+
|         502|   -3.171251|   -7.060327|    0.823787|    0.012236|
|         503|   -3.555467|   -7.110942|    0.823785|    0.012235|
|         504|   -3.798704|   -7.131059|    0.823784|    0.012234|
|         505|   -3.876959|   -7.144627|    0.823782|    0.012234|
|         506|   -3.930301|   -7.155741|    0.823780|    0.012233|
|         507|   -3.999671|   -7.165507|    0.823779|    0.012232|
|         508|   -4.085548|   -7.174273|    0.823777|    0.012231|
|         509|   -4.175371|   -7.182258|    0.823775|    0.012230|
|         510|   -4.252930|   -7.189611|    0.823773|    0.012229|
|         511|   -4.309964|   -7.196384|    0.823771|    0.012228|
|         512|   -4.347939|   -7.202621|    0.823769|    0.012227|
|         513|   -4.370448|   -7.208478|    0.823767|    0.012226|
|         514|   -4.381107|   -7.214166|    0.823765|    0.012225|
|         515|   -4.385620|   -7.219835|    0.823763|    0.012224|
|         516|   -4.390595|   -7.225516|    0.823761|    0.012223|
|         517|   -4.400551|   -7.231163|    0.823759|    0.012222|
|         518|   -4.416627|   -7.236714|    0.823756|    0.012221|
|         519|   -4.437118|   -7.242159|    0.823754|    0.012220|
|         520|   -4.458954|   -7.247513|    0.823752|    0.012219|
|         521|   -4.479531|   -7.252783|    0.823750|    0.012218|
|         522|   -4.497994|   -7.257939|    0.823748|    0.012217|
|         523|   -4.515175|   -7.262897|    0.823746|    0.012216|
|         524|   -4.532443|   -7.267555|    0.823743|    0.012215|
|         525|   -4.550614|   -7.271818|    0.823741|    0.012214|
|         526|   -4.569570|   -7.275615|    0.823739|    0.012213|
|         527|   -4.588497|   -7.278864|    0.823737|    0.012212|
|         528|   -4.606325|   -7.281510|    0.823736|    0.012211|
|         529|   -4.622096|   -7.283540|    0.823734|    0.012210|
|         530|   -4.635169|   -7.284966|    0.823732|    0.012209|
|         531|   -4.645350|   -7.285795|    0.823730|    0.012208|
|         532|   -4.652958|   -7.286057|    0.823729|    0.012207|
|         533|   -4.658797|   -7.285779|    0.823727|    0.012206|
|         534|   -4.663970|   -7.284985|    0.823726|    0.012205|
|         535|   -4.669610|   -7.283696|    0.823724|    0.012204|
|         536|   -4.676629|   -7.281920|    0.823723|    0.012204|
|         537|   -4.685571|   -7.279673|    0.823722|    0.012203|
|         538|   -4.696556|   -7.276979|    0.823721|    0.012202|
|         539|   -4.709290|   -7.273867|    0.823721|    0.012202|
|         540|   -4.723104|   -7.270355|    0.823720|    0.012201|
|         541|   -4.737053|   -7.266497|    0.823720|    0.012201|
|         542|   -4.750093|   -7.262342|    0.823720|    0.012200|
|         543|   -4.761333|   -7.257947|    0.823720|    0.012200|
|         544|   -4.770304|   -7.253366|    0.823720|    0.012200|
|         545|   -4.777104|   -7.248631|    0.823721|    0.012200|
|         546|   -4.782350|   -7.243798|    0.823721|    0.012200|
|         547|   -4.786956|   -7.238916|    0.823722|    0.012199|
|         548|   -4.791847|   -7.234022|    0.823724|    0.012199|
|         549|   -4.797749|   -7.229150|    0.823725|    0.012200|
|         550|   -4.805069|   -7.224324|    0.823727|    0.012200|
|         551|   -4.813880|   -7.219565|    0.823729|    0.012200|
|         552|   -4.823971|   -7.214895|    0.823732|    0.012200|
|         553|   -4.834936|   -7.210339|    0.823734|    0.012201|
|         554|   -4.846284|   -7.205929|    0.823737|    0.012201|
|         555|   -4.857548|   -7.201692|    0.823741|    0.012201|
|         556|   -4.868383|   -7.197665|    0.823745|    0.012202|
|         557|   -4.878623|   -7.193884|    0.823749|    0.012203|
|         558|   -4.888283|   -7.190377|    0.823753|    0.012203|
|         559|   -4.897524|   -7.187171|    0.823758|    0.012204|
|         560|   -4.906589|   -7.184293|    0.823763|    0.012205|
|         561|   -4.915730|   -7.181771|    0.823768|    0.012206|
|         562|   -4.925163|   -7.179631|    0.823774|    0.012207|
|         563|   -4.935036|   -7.177895|    0.823779|    0.012208|
|         564|   -4.945426|   -7.176584|    0.823785|    0.012209|
|         565|   -4.956353|   -7.175710|    0.823791|    0.012210|
|         566|   -4.967798|   -7.175281|    0.823798|    0.012211|
|         567|   -4.979726|   -7.175298|    0.823804|    0.012212|
|         568|   -4.992104|   -7.175751|    0.823810|    0.012213|
|         569|   -5.004910|   -7.176624|    0.823816|    0.012215|
|         570|   -5.018134|   -7.177890|    0.823822|    0.012216|
|         571|   -5.031774|   -7.179510|    0.823828|    0.012217|
|         572|   -5.045832|   -7.181427|    0.823834|    0.012218|
|         573|   -5.060301|   -7.183586|    0.823839|    0.012220|
|         574|   -5.075161|   -7.185917|    0.823845|    0.012221|
|         575|   -5.090375|   -7.188339|    0.823849|    0.012222|
|         576|   -5.105884|   -7.190767|    0.823854|    0.012223|
|         577|   -5.121611|   -7.193109|    0.823857|    0.012225|
|         578|   -5.137461|   -7.195266|    0.823861|    0.012226|
|         579|   -5.153324|   -7.197147|    0.823863|    0.012227|
|         580|   -5.169081|   -7.198681|    0.823866|    0.012228|
|         581|   -5.184603|   -7.199807|    0.823867|    0.012229|
|         582|   -5.199758|   -7.200476|    0.823868|    0.012230|
|         583|   -5.214411|   -7.200664|    0.823868|    0.012231|
|         584|   -5.228434|   -7.200365|    0.823868|    0.012232|
|         585|   -5.241706|   -7.199600|    0.823867|    0.012233|
|         586|   -5.254119|   -7.198413|    0.823865|    0.012234|
|         587|   -5.265586|   -7.196868|    0.823863|    0.012235|
|         588|   -5.276048|   -7.195046|    0.823860|    0.012236|
|         589|   -5.285470|   -7.193041|    0.823857|    0.012237|
|         590|   -5.293851|   -7.190953|    0.823853|    0.012238|
|         591|   -5.301215|   -7.188886|    0.823848|    0.012238|
|         592|   -5.307618|   -7.186942|    0.823843|    0.012239|
|         593|   -5.313132|   -7.185216|    0.823837|    0.012239|
|         594|   -5.317848|   -7.183795|    0.823831|    0.012240|
|         595|   -5.321864|   -7.182757|    0.823825|    0.012240|
|         596|   -5.325283|   -7.182166|    0.823818|    0.012241|
|         597|   -5.328203|   -7.182074|    0.823811|    0.012241|
|         598|   -5.330721|   -7.182518|    0.823803|    0.012242|
|         599|   -5.332922|   -7.183523|    0.823796|    0.012242|
|         600|   -5.334885|   -7.185098|    0.823788|    0.012242|
|         601|   -5.336678|   -7.187241|    0.823780|    0.012258|
+-----------------------------------------------------------------------+
|Fixed CL Mode                           |Value                         |
+-----------------------------------------------------------------------+
|Current CL                              |0.82378                       |
|Target CL                               |0.824                         |
|Previous AOA                            |2.79167                       |
|Changed AoA by                          |0.00106026                    |
+-----------------------------------------------------------------------+
+----------------------------------------------------------------+
|  Inner_Iter|    rms[Rho]|     rms[nu]|          CL|          CD|
+----------------------------------------------------------------+
|         602|   -3.167930|   -7.074662|    0.823772|    0.012258|
|         603|   -3.551811|   -7.128164|    0.823763|    0.012258|
|         604|   -3.794248|   -7.148634|    0.823755|    0.012258|
|         605|   -3.872434|   -7.162217|    0.823747|    0.012258|
|         606|   -3.926134|   -7.173424|    0.823738|    0.012258|
|         607|   -3.995989|   -7.183423|    0.823730|    0.012257|
|         608|   -4.082554|   -7.192530|    0.823722|    0.012257|
|         609|   -4.173456|   -7.200895|    0.823714|    0.012257|
|         610|   -4.252551|   -7.208597|    0.823706|    0.012257|
|         611|   -4.311367|   -7.215608|    0.823698|    0.012256|
|         612|   -4.351018|   -7.221912|    0.823690|    0.012256|
|         613|   -4.374775|   -7.227630|    0.823683|    0.012256|
|         614|   -4.386084|   -7.232957|    0.823676|    0.012255|
|         615|   -4.390767|   -7.238045|    0.823669|    0.012255|
|         616|   -4.395724|   -7.242917|    0.823662|    0.012254|
|         617|   -4.405722|   -7.247531|    0.823656|    0.012254|
|         618|   -4.422018|   -7.251846|    0.823650|    0.012253|
|         619|   -4.442916|   -7.255888|    0.823645|    0.012252|
|         620|   -4.465293|   -7.259719|    0.823640|    0.012252|
|         621|   -4.486470|   -7.263402|    0.823635|    0.012251|
|         622|   -4.505559|   -7.266962|    0.823630|    0.012250|
|         623|   -4.523408|   -7.270379|    0.823626|    0.012249|
|         624|   -4.541419|   -7.273605|    0.823623|    0.012249|
|         625|   -4.560411|   -7.276618|    0.823619|    0.012248|
|         626|   -4.580216|   -7.279401|    0.823617|    0.012247|
|         627|   -4.599927|   -7.281937|    0.823614|    0.012246|
|         628|   -4.618361|   -7.284235|    0.823612|    0.012245|
|         629|   -4.634468|   -7.286340|    0.823611|    0.012244|
|         630|   -4.647562|   -7.288301|    0.823609|    0.012244|
|         631|   -4.657460|   -7.290153|    0.823609|    0.012243|
|         632|   -4.664552|   -7.291949|    0.823608|    0.012242|
|         633|   -4.669744|   -7.293721|    0.823608|    0.012241|
|         634|   -4.674243|   -7.295489|    0.823609|    0.012240|
|         635|   -4.679257|   -7.297247|    0.823609|    0.012239|
|         636|   -4.685736|   -7.298977|    0.823611|    0.012238|
|         637|   -4.694225|   -7.300657|    0.823612|    0.012237|
|         638|   -4.704820|   -7.302261|    0.823614|    0.012236|
|         639|   -4.717183|   -7.303767|    0.823616|    0.012236|
|         640|   -4.730591|   -7.305142|    0.823619|    0.012235|
|         641|   -4.744050|   -7.306388|    0.823621|    0.012234|
|         642|   -4.756475|   -7.307512|    0.823624|    0.012233|
|         643|   -4.766972|   -7.308530|    0.823628|    0.012232|
|         644|   -4.775101|   -7.309459|    0.823632|    0.012231|
|         645|   -4.781024|   -7.310293|    0.823635|    0.012231|
|         646|   -4.785430|   -7.311063|    0.823640|    0.012230|
|         647|   -4.789292|   -7.311786|    0.823644|    0.012229|
|         648|   -4.793576|   -7.312474|    0.823649|    0.012228|
|         649|   -4.799025|   -7.313129|    0.823654|    0.012228|
|         650|   -4.806049|   -7.313740|    0.823659|    0.012227|
|         651|   -4.814719|   -7.314286|    0.823665|    0.012226|
|         652|   -4.824821|   -7.314739|    0.823670|    0.012226|
|         653|   -4.835945|   -7.315083|    0.823677|    0.012225|
|         654|   -4.847596|   -7.315298|    0.823683|    0.012224|
|         655|   -4.859308|   -7.315370|    0.823689|    0.012224|
|         656|   -4.870732|   -7.315299|    0.823696|    0.012223|
|         657|   -4.881700|   -7.315076|    0.823703|    0.012223|
|         658|   -4.892224|   -7.314692|    0.823711|    0.012222|
|         659|   -4.902465|   -7.314140|    0.823718|    0.012222|
|         660|   -4.912666|   -7.313415|    0.823726|    0.012222|
|         661|   -4.923084|   -7.312528|    0.823734|    0.012221|
|         662|   -4.933937|   -7.311501|    0.823742|    0.012221|
|         663|   -4.945378|   -7.310364|    0.823751|    0.012221|
|         664|   -4.957486|   -7.309157|    0.823759|    0.012221|
|         665|   -4.970279|   -7.307926|    0.823768|    0.012220|
|         666|   -4.983734|   -7.306718|    0.823777|    0.012220|
|         667|   -4.997811|   -7.305582|    0.823785|    0.012220|
|         668|   -5.012466|   -7.304568|    0.823794|    0.012220|
|         669|   -5.027665|   -7.303724|    0.823803|    0.012220|
|         670|   -5.043385|   -7.303080|    0.823811|    0.012220|
|         671|   -5.059610|   -7.302672|    0.823820|    0.012220|
|         672|   -5.076324|   -7.302519|    0.823828|    0.012220|
|         673|   -5.093494|   -7.302627|    0.823836|    0.012220|
|         674|   -5.111069|   -7.302988|    0.823844|    0.012221|
|         675|   -5.128966|   -7.303576|    0.823851|    0.012221|
|         676|   -5.147070|   -7.304347|    0.823858|    0.012221|
|         677|   -5.165231|   -7.305229|    0.823864|    0.012221|
|         678|   -5.183267|   -7.306153|    0.823870|    0.012221|
|         679|   -5.200970|   -7.307044|    0.823876|    0.012222|
|         680|   -5.218110|   -7.307812|    0.823881|    0.012222|
|         681|   -5.234448|   -7.308360|    0.823885|    0.012222|
|         682|   -5.249746|   -7.308593|    0.823889|    0.012223|
|         683|   -5.263783|   -7.308425|    0.823892|    0.012223|
|         684|   -5.276370|   -7.307786|    0.823895|    0.012223|
|         685|   -5.287362|   -7.306626|    0.823896|    0.012224|
|         686|   -5.296674|   -7.304925|    0.823898|    0.012224|
|         687|   -5.304287|   -7.302687|    0.823898|    0.012225|
|         688|   -5.310251|   -7.299951|    0.823898|    0.012225|
|         689|   -5.314676|   -7.296777|    0.823898|    0.012225|
|         690|   -5.317724|   -7.293252|    0.823896|    0.012226|
|         691|   -5.319590|   -7.289481|    0.823895|    0.012226|
|         692|   -5.320491|   -7.285580|    0.823892|    0.012227|
|         693|   -5.320644|   -7.281668|    0.823889|    0.012227|
|         694|   -5.320260|   -7.277867|    0.823886|    0.012228|
|         695|   -5.319528|   -7.274292|    0.823882|    0.012228|
|         696|   -5.318618|   -7.271046|    0.823878|    0.012228|
|         697|   -5.317671|   -7.268219|    0.823873|    0.012229|
|         698|   -5.316804|   -7.265887|    0.823868|    0.012229|
|         699|   -5.316109|   -7.264105|    0.823862|    0.012230|
|         700|   -5.315658|   -7.262910|    0.823856|    0.012230|
|         701|   -5.315503|   -7.262318|    0.823850|    0.012241|
+-----------------------------------------------------------------------+
|Fixed CL Mode                           |Value                         |
+-----------------------------------------------------------------------+
|Current CL                              |0.82385                       |
|Target CL                               |0.824                         |
|Previous AOA                            |2.79274                       |
|Changed AoA by                          |0.000718434                   |
+-----------------------------------------------------------------------+
+----------------------------------------------------------------+
|  Inner_Iter|    rms[Rho]|     rms[nu]|          CL|          CD|
+----------------------------------------------------------------+
|         702|   -3.336897|   -7.180730|    0.823844|    0.012241|
|         703|   -3.719836|   -7.218353|    0.823837|    0.012242|
|         704|   -3.959446|   -7.231500|    0.823831|    0.012242|
|         705|   -4.036148|   -7.239824|    0.823824|    0.012242|
|         706|   -4.089423|   -7.246661|    0.823817|    0.012243|
|         707|   -4.158922|   -7.252751|    0.823810|    0.012243|
|         708|   -4.245052|   -7.258269|    0.823803|    0.012243|
|         709|   -4.335799|   -7.263285|    0.823796|    0.012244|
|         710|   -4.415652|   -7.267805|    0.823789|    0.012244|
|         711|   -4.476366|   -7.271744|    0.823782|    0.012244|
|         712|   -4.518590|   -7.275034|    0.823775|    0.012244|
|         713|   -4.544867|   -7.277680|    0.823768|    0.012245|
|         714|   -4.558052|   -7.279738|    0.823762|    0.012245|
|         715|   -4.563782|   -7.281245|    0.823755|    0.012245|
|         716|   -4.569149|   -7.282188|    0.823749|    0.012245|
|         717|   -4.579216|   -7.282535|    0.823743|    0.012245|
|         718|   -4.595462|   -7.282286|    0.823738|    0.012245|
|         719|   -4.616320|   -7.281497|    0.823733|    0.012245|
|         720|   -4.638744|   -7.280263|    0.823727|    0.012245|
|         721|   -4.660102|   -7.278684|    0.823723|    0.012245|
|         722|   -4.679526|   -7.276846|    0.823718|    0.012245|
|         723|   -4.697848|   -7.274820|    0.823714|    0.012245|
|         724|   -4.716417|   -7.272668|    0.823711|    0.012245|
|         725|   -4.735962|   -7.270456|    0.823707|    0.012245|
|         726|   -4.756199|   -7.268244|    0.823704|    0.012245|
|         727|   -4.776094|   -7.266099|    0.823701|    0.012245|
|         728|   -4.794373|   -7.264090|    0.823699|    0.012245|
|         729|   -4.809956|   -7.262284|    0.823697|    0.012245|
|         730|   -4.822215|   -7.260738|    0.823695|    0.012245|
|         731|   -4.831092|   -7.259499|    0.823694|    0.012245|
|         732|   -4.837118|   -7.258602|    0.823693|    0.012245|
|         733|   -4.841311|   -7.258069|    0.823692|    0.012245|
|         734|   -4.844931|   -7.257904|    0.823692|    0.012244|
|         735|   -4.849175|   -7.258085|    0.823692|    0.012244|
|         736|   -4.854938|   -7.258587|    0.823692|    0.012244|
|         737|   -4.862685|   -7.259374|    0.823692|    0.012244|
|         738|   -4.872426|   -7.260405|    0.823693|    0.012244|
|         739|   -4.883740|   -7.261635|    0.823694|    0.012244|
|         740|   -4.895848|   -7.263026|    0.823695|    0.012243|
|         741|   -4.907728|   -7.264536|    0.823696|    0.012243|
|         742|   -4.918323|   -7.266132|    0.823698|    0.012243|
|         743|   -4.926812|   -7.267785|    0.823700|    0.012243|
|         744|   -4.932856|   -7.269469|    0.823702|    0.012242|
|         745|   -4.936707|   -7.271163|    0.823704|    0.012242|
|         746|   -4.939102|   -7.272859|    0.823706|    0.012242|
|         747|   -4.941004|   -7.274551|    0.823708|    0.012242|
|         748|   -4.943331|   -7.276230|    0.823711|    0.012241|
|         749|   -4.946756|   -7.277890|    0.823713|    0.012241|
|         750|   -4.951629|   -7.279517|    0.823716|    0.012241|
|         751|   -4.957979|   -7.281105|    0.823719|    0.012240|
|         752|   -4.965577|   -7.282646|    0.823722|    0.012240|
|         753|   -4.974036|   -7.284140|    0.823725|    0.012239|
|         754|   -4.982911|   -7.285586|    0.823728|    0.012239|
|         755|   -4.991804|   -7.286978|    0.823732|    0.012239|
|         756|   -5.000438|   -7.288312|    0.823736|    0.012238|
|         757|   -5.008697|   -7.289580|    0.823739|    0.012238|
|         758|   -5.016622|   -7.290776|    0.823743|    0.012238|
|         759|   -5.024369|   -7.291895|    0.823747|    0.012237|
|         760|   -5.032151|   -7.292935|    0.823751|    0.012237|
|         761|   -5.040182|   -7.293897|    0.823756|    0.012236|
|         762|   -5.048638|   -7.294788|    0.823760|    0.012236|
|         763|   -5.057633|   -7.295621|    0.823765|    0.012236|
|         764|   -5.067223|   -7.296413|    0.823770|    0.012235|
|         765|   -5.077415|   -7.297184|    0.823775|    0.012235|
|         766|   -5.088187|   -7.297961|    0.823779|    0.012234|
|         767|   -5.099503|   -7.298774|    0.823784|    0.012234|
|         768|   -5.111330|   -7.299656|    0.823789|    0.012234|
|         769|   -5.123645|   -7.300640|    0.823794|    0.012233|
|         770|   -5.136433|   -7.301759|    0.823799|    0.012233|
|         771|   -5.149686|   -7.303042|    0.823804|    0.012233|
|         772|   -5.163397|   -7.304510|    0.823809|    0.012232|
|         773|   -5.177548|   -7.306180|    0.823814|    0.012232|
|         774|   -5.192107|   -7.308056|    0.823818|    0.012232|
|         775|   -5.207025|   -7.310116|    0.823823|    0.012231|
|         776|   -5.222229|   -7.312350|    0.823827|    0.012231|
|         777|   -5.237625|   -7.314734|    0.823831|    0.012231|
|         778|   -5.253102|   -7.317229|    0.823835|    0.012231|
|         779|   -5.268528|   -7.319778|    0.823838|    0.012230|
|         780|   -5.283761|   -7.322315|    0.823841|    0.012230|
|         781|   -5.298647|   -7.324761|    0.823844|    0.012230|
|         782|   -5.313029|   -7.327036|    0.823847|    0.012230|
|         783|   -5.326749|   -7.329057|    0.823849|    0.012229|
|         784|   -5.339658|   -7.330747|    0.823850|    0.012229|
|         785|   -5.351622|   -7.332039|    0.823852|    0.012229|
|         786|   -5.362528|   -7.332880|    0.823853|    0.012229|
|         787|   -5.372294|   -7.333235|    0.823853|    0.012229|
|         788|   -5.380870|   -7.333092|    0.823853|    0.012229|
|         789|   -5.388245|   -7.332464|    0.823853|    0.012228|
|         790|   -5.394443|   -7.331384|    0.823852|    0.012228|
|         791|   -5.399523|   -7.329911|    0.823851|    0.012228|
|         792|   -5.403571|   -7.328120|    0.823850|    0.012228|
|         793|   -5.406696|   -7.326102|    0.823848|    0.012228|
|         794|   -5.409017|   -7.323956|    0.823846|    0.012228|
|         795|   -5.410662|   -7.321785|    0.823844|    0.012228|
|         796|   -5.411755|   -7.319691|    0.823841|    0.012228|
|         797|   -5.412419|   -7.317772|    0.823838|    0.012228|
|         798|   -5.412763|   -7.316115|    0.823835|    0.012228|
|         799|   -5.412888|   -7.314796|    0.823832|    0.012228|
|         800|   -5.412882|   -7.313880|    0.823828|    0.012228|
|         801|   -5.412821|   -7.313413|    0.823824|    0.012241|
+-----------------------------------------------------------------------+
|Fixed CL Mode                           |Value                         |
+-----------------------------------------------------------------------+
|Current CL                              |0.823824                      |
|Target CL                               |0.824                         |
|Previous AOA                            |2.79345                       |
|Changed AoA by                          |0.000860646                   |
+-----------------------------------------------------------------------+
+----------------------------------------------------------------+
|  Inner_Iter|    rms[Rho]|     rms[nu]|          CL|          CD|
+----------------------------------------------------------------+
|         802|   -3.258525|   -7.183092|    0.823820|    0.012241|
|         803|   -3.642268|   -7.239588|    0.823816|    0.012241|
|         804|   -3.883999|   -7.259675|    0.823811|    0.012241|
|         805|   -3.961588|   -7.272006|    0.823807|    0.012241|
|         806|   -4.015002|   -7.281772|    0.823803|    0.012241|
|         807|   -4.084670|   -7.290215|    0.823798|    0.012241|
|         808|   -4.171107|   -7.297700|    0.823794|    0.012241|
|         809|   -4.262070|   -7.304421|    0.823789|    0.012241|
|         810|   -4.341611|   -7.310468|    0.823785|    0.012241|
|         811|   -4.401265|   -7.315808|    0.823781|    0.012241|
|         812|   -4.441915|   -7.320423|    0.823776|    0.012242|
|         813|   -4.466550|   -7.324425|    0.823772|    0.012242|
|         814|   -4.478436|   -7.327998|    0.823768|    0.012242|
|         815|   -4.483380|   -7.331266|    0.823764|    0.012242|
|         816|   -4.488394|   -7.334244|    0.823760|    0.012242|
|         817|   -4.498363|   -7.336869|    0.823756|    0.012242|
|         818|   -4.514617|   -7.339102|    0.823753|    0.012242|
|         819|   -4.535489|   -7.340966|    0.823750|    0.012242|
|         820|   -4.557856|   -7.342538|    0.823747|    0.012243|
|         821|   -4.579035|   -7.343892|    0.823744|    0.012243|
|         822|   -4.598131|   -7.345064|    0.823741|    0.012243|
|         823|   -4.615987|   -7.346059|    0.823739|    0.012243|
|         824|   -4.633999|   -7.346859|    0.823737|    0.012243|
|         825|   -4.652971|   -7.347463|    0.823735|    0.012243|
|         826|   -4.672717|   -7.347875|    0.823733|    0.012243|
|         827|   -4.692314|   -7.348112|    0.823731|    0.012244|
|         828|   -4.710581|   -7.348223|    0.823730|    0.012244|
|         829|   -4.726482|   -7.348256|    0.823729|    0.012244|
|         830|   -4.739367|   -7.348274|    0.823729|    0.012244|
|         831|   -4.749093|   -7.348340|    0.823728|    0.012244|
|         832|   -4.756086|   -7.348505|    0.823728|    0.012245|
|         833|   -4.761271|   -7.348805|    0.823728|    0.012245|
|         834|   -4.765860|   -7.349253|    0.823728|    0.012245|
|         835|   -4.771053|   -7.349844|    0.823728|    0.012245|
|         836|   -4.777792|   -7.350562|    0.823729|    0.012245|
|         837|   -4.786609|   -7.351372|    0.823730|    0.012245|
|         838|   -4.797590|   -7.352238|    0.823731|    0.012246|
|         839|   -4.810386|   -7.353117|    0.823732|    0.012246|
|         840|   -4.824260|   -7.353986|    0.823733|    0.012246|
|         841|   -4.838192|   -7.354829|    0.823735|    0.012246|
|         842|   -4.851067|   -7.355636|    0.823737|    0.012246|
|         843|   -4.861956|   -7.356401|    0.823738|    0.012247|
|         844|   -4.870393|   -7.357101|    0.823740|    0.012247|
|         845|   -4.876529|   -7.357752|    0.823743|    0.012247|
|         846|   -4.881063|   -7.358366|    0.823745|    0.012247|
|         847|   -4.884989|   -7.358947|    0.823748|    0.012247|
|         848|   -4.889300|   -7.359497|    0.823750|    0.012247|
|         849|   -4.894757|   -7.360008|    0.823753|    0.012247|
|         850|   -4.901785|   -7.360471|    0.823756|    0.012247|
|         851|   -4.910458|   -7.360868|    0.823760|    0.012247|
|         852|   -4.920555|   -7.361179|    0.823763|    0.012248|
|         853|   -4.931657|   -7.361394|    0.823767|    0.012248|
|         854|   -4.943257|   -7.361518|    0.823771|    0.012248|
|         855|   -4.954873|   -7.361553|    0.823775|    0.012248|
|         856|   -4.966149|   -7.361505|    0.823779|    0.012248|
|         857|   -4.976909|   -7.361374|    0.823784|    0.012248|
|         858|   -4.987168|   -7.361166|    0.823789|    0.012248|
|         859|   -4.997089|   -7.360893|    0.823794|    0.012248|
|         860|   -5.006920|   -7.360573|    0.823799|    0.012248|
|         861|   -5.016923|   -7.360232|    0.823804|    0.012248|
|         862|   -5.027319|   -7.359908|    0.823810|    0.012248|
|         863|   -5.038263|   -7.359644|    0.823816|    0.012248|
|         864|   -5.049833|   -7.359491|    0.823822|    0.012248|
|         865|   -5.062047|   -7.359503|    0.823828|    0.012248|
|         866|   -5.074884|   -7.359734|    0.823834|    0.012247|
|         867|   -5.088305|   -7.360240|    0.823840|    0.012247|
|         868|   -5.102271|   -7.361076|    0.823846|    0.012247|
|         869|   -5.116757|   -7.362289|    0.823853|    0.012247|
|         870|   -5.131752|   -7.363920|    0.823859|    0.012247|
|         871|   -5.147254|   -7.365997|    0.823865|    0.012247|
|         872|   -5.163263|   -7.368534|    0.823871|    0.012247|
|         873|   -5.179774|   -7.371530|    0.823877|    0.012247|
|         874|   -5.196761|   -7.374963|    0.823883|    0.012247|
|         875|   -5.214177|   -7.378793|    0.823888|    0.012246|
|         876|   -5.231947|   -7.382953|    0.823893|    0.012246|
|         877|   -5.249969|   -7.387341|    0.823898|    0.012246|
|         878|   -5.268113|   -7.391873|    0.823903|    0.012246|
|         879|   -5.286225|   -7.396432|    0.823907|    0.012245|
|         880|   -5.304130|   -7.400884|    0.823911|    0.012245|
|         881|   -5.321640|   -7.405084|    0.823914|    0.012245|
|         882|   -5.338554|   -7.408882|    0.823917|    0.012245|
|         883|   -5.354670|   -7.412140|    0.823919|    0.012244|
|         884|   -5.369796|   -7.414734|    0.823921|    0.012244|
|         885|   -5.383755|   -7.416573|    0.823923|    0.012244|
|         886|   -5.396404|   -7.417600|    0.823924|    0.012243|
|         887|   -5.407638|   -7.417800|    0.823924|    0.012243|
|         888|   -5.417404|   -7.417205|    0.823924|    0.012242|
|         889|   -5.425703|   -7.415886|    0.823924|    0.012242|
|         890|   -5.432587|   -7.413954|    0.823923|    0.012242|
|         891|   -5.438157|   -7.411546|    0.823922|    0.012241|
|         892|   -5.442547|   -7.408815|    0.823920|    0.012241|
|         893|   -5.445920|   -7.405954|    0.823918|    0.012240|
|         894|   -5.448446|   -7.403115|    0.823916|    0.012240|
|         895|   -5.450300|   -7.400432|    0.823913|    0.012240|
|         896|   -5.451645|   -7.398060|    0.823910|    0.012239|
|         897|   -5.452630|   -7.396128|    0.823907|    0.012239|
|         898|   -5.453387|   -7.394743|    0.823904|    0.012239|
|         899|   -5.454025|   -7.393984|    0.823900|    0.012238|
|         900|   -5.454637|   -7.393910|    0.823896|    0.012238|
|         901|   -5.455294|   -7.394552|    0.823892|    0.012245|
+-----------------------------------------------------------------------+
|Fixed CL Mode                           |Value                         |
+-----------------------------------------------------------------------+
|Current CL                              |0.823892                      |
|Target CL                               |0.824                         |
|Previous AOA                            |2.79431                       |
[...]
|        5298|   -6.070853|   -7.906119|    0.824235|    0.012251|
|        5299|   -6.078042|   -7.910932|    0.824235|    0.012251|
|        5300|   -6.084838|   -7.915755|    0.824235|    0.012251|
|        5301|   -6.091196|   -7.920598|    0.824235|    0.012251|
|        5302|   -6.097083|   -7.925469|    0.824235|    0.012251|
|        5303|   -6.102476|   -7.930376|    0.824235|    0.012251|
|        5304|   -6.107364|   -7.935323|    0.824235|    0.012251|
|        5305|   -6.111750|   -7.940315|    0.824235|    0.012251|
|        5306|   -6.115647|   -7.945354|    0.824235|    0.012251|
|        5307|   -6.119082|   -7.950442|    0.824236|    0.012251|
|        5308|   -6.122091|   -7.955583|    0.824236|    0.012251|
|        5309|   -6.124720|   -7.960776|    0.824236|    0.012251|
|        5310|   -6.127019|   -7.966027|    0.824236|    0.012251|
|        5311|   -6.129045|   -7.971337|    0.824236|    0.012251|
|        5312|   -6.130857|   -7.976711|    0.824236|    0.012251|
|        5313|   -6.132516|   -7.982154|    0.824236|    0.012251|
|        5314|   -6.134081|   -7.987672|    0.824236|    0.012251|
|        5315|   -6.135609|   -7.993272|    0.824236|    0.012251|
|        5316|   -6.137154|   -7.998962|    0.824236|    0.012251|
|        5317|   -6.138765|   -8.004749|    0.824236|    0.012251|
|        5318|   -6.140485|   -8.010643|    0.824236|    0.012251|
|        5319|   -6.142351|   -8.016651|    0.824236|    0.012251|
|        5320|   -6.144395|   -8.022781|    0.824236|    0.012251|
|        5321|   -6.146640|   -8.029040|    0.824236|    0.012251|
|        5322|   -6.149103|   -8.035433|    0.824236|    0.012251|
|        5323|   -6.151795|   -8.041965|    0.824236|    0.012252|
|        5324|   -6.154717|   -8.048640|    0.824237|    0.012252|
|        5325|   -6.157866|   -8.055457|    0.824237|    0.012252|
|        5326|   -6.161229|   -8.062417|    0.824237|    0.012252|
|        5327|   -6.164788|   -8.069516|    0.824237|    0.012252|
|        5328|   -6.168518|   -8.076749|    0.824237|    0.012252|
|        5329|   -6.172389|   -8.084111|    0.824237|    0.012252|
|        5330|   -6.176366|   -8.091593|    0.824237|    0.012252|
|        5331|   -6.180408|   -8.099185|    0.824237|    0.012252|
|        5332|   -6.184472|   -8.106875|    0.824237|    0.012252|
|        5333|   -6.188511|   -8.114653|    0.824237|    0.012252|
|        5334|   -6.192480|   -8.122503|    0.824237|    0.012252|
|        5335|   -6.196332|   -8.130413|    0.824237|    0.012253|
|        5336|   -6.200024|   -8.138368|    0.824237|    0.012253|
|        5337|   -6.203515|   -8.146355|    0.824237|    0.012253|
|        5338|   -6.206773|   -8.154361|    0.824237|    0.012253|
|        5339|   -6.209769|   -8.162372|    0.824237|    0.012253|
|        5340|   -6.212484|   -8.170378|    0.824237|    0.012253|
|        5341|   -6.214908|   -8.178369|    0.824237|    0.012253|
|        5342|   -6.217039|   -8.186335|    0.824238|    0.012253|
|        5343|   -6.218886|   -8.194271|    0.824238|    0.012253|
|        5344|   -6.220466|   -8.202168|    0.824238|    0.012253|
|        5345|   -6.221805|   -8.210023|    0.824238|    0.012253|
|        5346|   -6.222936|   -8.217832|    0.824238|    0.012253|
|        5347|   -6.223899|   -8.225592|    0.824238|    0.012253|
|        5348|   -6.224739|   -8.233301|    0.824237|    0.012253|
|        5349|   -6.225503|   -8.240958|    0.824237|    0.012254|
|        5350|   -6.226239|   -8.248560|    0.824237|    0.012254|
|        5351|   -6.226999|   -8.256108|    0.824237|    0.012254|
|        5352|   -6.227829|   -8.263599|    0.824237|    0.012254|
|        5353|   -6.228779|   -8.271032|    0.824237|    0.012254|
|        5354|   -6.229890|   -8.278405|    0.824237|    0.012254|
|        5355|   -6.231203|   -8.285714|    0.824237|    0.012254|
|        5356|   -6.232755|   -8.292954|    0.824237|    0.012254|
|        5357|   -6.234577|   -8.300121|    0.824237|    0.012254|
|        5358|   -6.236695|   -8.307207|    0.824237|    0.012254|
|        5359|   -6.239131|   -8.314205|    0.824237|    0.012254|
|        5360|   -6.241901|   -8.321106|    0.824237|    0.012254|
|        5361|   -6.245016|   -8.327900|    0.824237|    0.012254|
|        5362|   -6.248482|   -8.334577|    0.824237|    0.012254|
|        5363|   -6.252297|   -8.341124|    0.824236|    0.012254|
|        5364|   -6.256457|   -8.347530|    0.824236|    0.012254|
|        5365|   -6.260950|   -8.353784|    0.824236|    0.012254|
|        5366|   -6.265761|   -8.359873|    0.824236|    0.012254|
|        5367|   -6.270867|   -8.365786|    0.824236|    0.012254|
|        5368|   -6.276240|   -8.371514|    0.824236|    0.012254|
|        5369|   -6.281850|   -8.377048|    0.824236|    0.012254|
|        5370|   -6.287657|   -8.382380|    0.824235|    0.012254|
|        5371|   -6.293621|   -8.387506|    0.824235|    0.012254|
|        5372|   -6.299695|   -8.392422|    0.824235|    0.012253|
|        5373|   -6.305830|   -8.397130|    0.824235|    0.012253|
|        5374|   -6.311972|   -8.401631|    0.824235|    0.012253|
|        5375|   -6.318068|   -8.405931|    0.824235|    0.012253|
|        5376|   -6.324062|   -8.410038|    0.824235|    0.012253|
|        5377|   -6.329898|   -8.413962|    0.824234|    0.012253|
|        5378|   -6.335525|   -8.417717|    0.824234|    0.012253|
|        5379|   -6.340890|   -8.421319|    0.824234|    0.012253|
|        5380|   -6.345950|   -8.424784|    0.824234|    0.012253|
|        5381|   -6.350663|   -8.428131|    0.824234|    0.012253|
|        5382|   -6.354998|   -8.431379|    0.824234|    0.012253|
|        5383|   -6.358928|   -8.434547|    0.824234|    0.012253|
|        5384|   -6.362438|   -8.437657|    0.824234|    0.012253|
|        5385|   -6.365518|   -8.440726|    0.824233|    0.012253|
|        5386|   -6.368169|   -8.443772|    0.824233|    0.012252|
|        5387|   -6.370398|   -8.446811|    0.824233|    0.012252|
|        5388|   -6.372222|   -8.449856|    0.824233|    0.012252|
|        5389|   -6.373659|   -8.452920|    0.824233|    0.012252|
|        5390|   -6.374737|   -8.456010|    0.824233|    0.012252|
|        5391|   -6.375485|   -8.459132|    0.824233|    0.012252|
|        5392|   -6.375932|   -8.462289|    0.824233|    0.012252|
|        5393|   -6.376112|   -8.465479|    0.824233|    0.012252|
|        5394|   -6.376055|   -8.468698|    0.824233|    0.012252|
|        5395|   -6.375792|   -8.471939|    0.824233|    0.012252|
|        5396|   -6.375352|   -8.475192|    0.824233|    0.012251|
|        5397|   -6.374760|   -8.478444|    0.824233|    0.012251|
|        5398|   -6.374040|   -8.481679|    0.824233|    0.012251|
|        5399|   -6.373211|   -8.484882|    0.824233|    0.012251|
|        5400|   -6.372291|   -8.488034|    0.824233|    0.012251|
|        5401|   -6.371295|   -8.491117|    0.824233|    0.012251|
|        5402|   -6.370233|   -8.494111|    0.824233|    0.012251|
|        5403|   -6.369115|   -8.497000|    0.824233|    0.012251|
|        5404|   -6.367949|   -8.499765|    0.824233|    0.012251|
|        5405|   -6.366740|   -8.502391|    0.824233|    0.012251|
|        5406|   -6.365492|   -8.504865|    0.824233|    0.012250|
|        5407|   -6.364209|   -8.507177|    0.824233|    0.012250|
|        5408|   -6.362894|   -8.509317|    0.824233|    0.012250|
|        5409|   -6.361549|   -8.511280|    0.824233|    0.012250|
|        5410|   -6.360175|   -8.513062|    0.824234|    0.012250|
|        5411|   -6.358777|   -8.514665|    0.824234|    0.012250|
|        5412|   -6.357355|   -8.516089|    0.824234|    0.012250|
|        5413|   -6.355914|   -8.517338|    0.824234|    0.012250|
|        5414|   -6.354457|   -8.518419|    0.824234|    0.012250|
|        5415|   -6.352989|   -8.519337|    0.824234|    0.012250|
|        5416|   -6.351514|   -8.520099|    0.824234|    0.012250|
|        5417|   -6.350038|   -8.520714|    0.824234|    0.012250|
|        5418|   -6.348569|   -8.521188|    0.824234|    0.012250|
|        5419|   -6.347112|   -8.521528|    0.824234|    0.012249|
|        5420|   -6.345678|   -8.521742|    0.824234|    0.012249|
|        5421|   -6.344273|   -8.521834|    0.824234|    0.012249|
|        5422|   -6.342910|   -8.521808|    0.824234|    0.012249|
|        5423|   -6.341597|   -8.521670|    0.824234|    0.012249|
|        5424|   -6.340347|   -8.521423|    0.824234|    0.012249|
|        5425|   -6.339173|   -8.521068|    0.824234|    0.012249|
|        5426|   -6.338086|   -8.520609|    0.824234|    0.012249|
|        5427|   -6.337102|   -8.520049|    0.824234|    0.012249|
|        5428|   -6.336233|   -8.519389|    0.824234|    0.012249|
|        5429|   -6.335497|   -8.518635|    0.824234|    0.012249|
|        5430|   -6.334907|   -8.517791|    0.824234|    0.012249|
|        5431|   -6.334479|   -8.516861|    0.824234|    0.012249|
|        5432|   -6.334230|   -8.515853|    0.824234|    0.012249|
|        5433|   -6.334175|   -8.514774|    0.824234|    0.012249|
|        5434|   -6.334329|   -8.513635|    0.824234|    0.012249|
|        5435|   -6.334708|   -8.512445|    0.824234|    0.012249|
|        5436|   -6.335325|   -8.511216|    0.824233|    0.012249|
|        5437|   -6.336196|   -8.509962|    0.824233|    0.012249|
|        5438|   -6.337330|   -8.508694|    0.824233|    0.012249|
|        5439|   -6.338741|   -8.507428|    0.824233|    0.012249|
|        5440|   -6.340436|   -8.506177|    0.824233|    0.012249|
|        5441|   -6.342423|   -8.504955|    0.824233|    0.012249|
|        5442|   -6.344708|   -8.503777|    0.824233|    0.012250|
|        5443|   -6.347294|   -8.502655|    0.824233|    0.012250|
|        5444|   -6.350179|   -8.501603|    0.824233|    0.012250|
|        5445|   -6.353363|   -8.500632|    0.824233|    0.012250|
|        5446|   -6.356838|   -8.499751|    0.824232|    0.012250|
|        5447|   -6.360596|   -8.498972|    0.824232|    0.012250|
|        5448|   -6.364623|   -8.498301|    0.824232|    0.012250|
|        5449|   -6.368903|   -8.497745|    0.824232|    0.012250|
|        5450|   -6.373416|   -8.497309|    0.824232|    0.012250|
|        5451|   -6.378137|   -8.496998|    0.824232|    0.012250|
|        5452|   -6.383036|   -8.496813|    0.824231|    0.012250|
|        5453|   -6.388082|   -8.496758|    0.824231|    0.012250|
|        5454|   -6.393237|   -8.496831|    0.824231|    0.012250|
|        5455|   -6.398460|   -8.497032|    0.824231|    0.012250|
|        5456|   -6.403707|   -8.497361|    0.824231|    0.012250|
|        5457|   -6.408931|   -8.497814|    0.824231|    0.012251|
|        5458|   -6.414083|   -8.498389|    0.824230|    0.012251|
|        5459|   -6.419110|   -8.499083|    0.824230|    0.012251|
|        5460|   -6.423962|   -8.499892|    0.824230|    0.012251|
|        5461|   -6.428587|   -8.500812|    0.824230|    0.012251|
|        5462|   -6.432936|   -8.501838|    0.824229|    0.012251|
|        5463|   -6.436962|   -8.502967|    0.824229|    0.012251|
|        5464|   -6.440623|   -8.504194|    0.824229|    0.012251|
|        5465|   -6.443882|   -8.505514|    0.824229|    0.012251|
|        5466|   -6.446711|   -8.506923|    0.824229|    0.012251|
|        5467|   -6.449087|   -8.508417|    0.824228|    0.012251|
|        5468|   -6.450998|   -8.509990|    0.824228|    0.012251|
|        5469|   -6.452438|   -8.511638|    0.824228|    0.012251|
|        5470|   -6.453412|   -8.513357|    0.824227|    0.012251|
|        5471|   -6.453934|   -8.515143|    0.824227|    0.012252|
|        5472|   -6.454025|   -8.516990|    0.824227|    0.012252|
|        5473|   -6.453712|   -8.518895|    0.824227|    0.012252|
|        5474|   -6.453031|   -8.520852|    0.824226|    0.012252|
|        5475|   -6.452020|   -8.522858|    0.824226|    0.012252|
|        5476|   -6.450722|   -8.524907|    0.824226|    0.012252|
|        5477|   -6.449183|   -8.526995|    0.824226|    0.012252|
|        5478|   -6.447449|   -8.529117|    0.824225|    0.012252|
|        5479|   -6.445565|   -8.531269|    0.824225|    0.012252|
|        5480|   -6.443579|   -8.533447|    0.824225|    0.012252|
|        5481|   -6.441532|   -8.535645|    0.824224|    0.012252|
|        5482|   -6.439468|   -8.537860|    0.824224|    0.012252|
|        5483|   -6.437425|   -8.540088|    0.824224|    0.012252|
|        5484|   -6.435439|   -8.542325|    0.824224|    0.012252|
|        5485|   -6.433542|   -8.544568|    0.824223|    0.012252|
|        5486|   -6.431766|   -8.546815|    0.824223|    0.012252|
|        5487|   -6.430134|   -8.549062|    0.824223|    0.012252|
|        5488|   -6.428671|   -8.551310|    0.824223|    0.012252|
|        5489|   -6.427397|   -8.553556|    0.824222|    0.012252|
|        5490|   -6.426328|   -8.555800|    0.824222|    0.012252|
|        5491|   -6.425478|   -8.558043|    0.824222|    0.012252|
|        5492|   -6.424859|   -8.560285|    0.824222|    0.012252|
|        5493|   -6.424479|   -8.562530|    0.824221|    0.012252|
|        5494|   -6.424346|   -8.564779|    0.824221|    0.012252|
|        5495|   -6.424463|   -8.567035|    0.824221|    0.012252|
|        5496|   -6.424834|   -8.569302|    0.824221|    0.012252|
|        5497|   -6.425460|   -8.571585|    0.824220|    0.012252|
|        5498|   -6.426339|   -8.573888|    0.824220|    0.012252|
|        5499|   -6.427471|   -8.576216|    0.824220|    0.012237|
+-----------------------------------------------------------------------+
|Fixed CL Mode (Finite Difference)       |Value                         |
+-----------------------------------------------------------------------+
|Delta CL / Delta AoA                    |0.220258                      |
|Delta CD / Delta CL                     |0.0286681                     |
|Delta CMz / Delta CL                    |0.00305475                    |
+-----------------------------------------------------------------------+
Writing Flow Meta-Data file: flow.meta

----------------------------- Solver Exit -------------------------------

Maximum number of iterations reached (ITER = 5500) before convergence.
+-----------------------------------------------------------------------+
|      Convergence Field     |     Value    |   Criterion  |  Converged |
+-----------------------------------------------------------------------+
|                    rms[Rho]|      -6.42747|         < -12|          No|
+-----------------------------------------------------------------------+
-------------------------------------------------------------------------

--------------------------- Finalizing Solver ---------------------------
Deleted CNumerics container.
Deleted CIntegration container.
Deleted CSolver container.
Deleted CIteration container.
Deleted CInterface container.
Deleted CGeometry container.
Deleted CFreeFormDefBox class.
Deleted CSurfaceMovement class.
Deleted CVolumetricMovement class.
Deleted CConfig container.
Deleted nInst container.
Deleted COutput class.
-------------------------------------------------------------------------

------------------------- Exit Success (SU2_CFD) ------------------------


-------------------------------------------------------------------------
|    ___ _   _ ___                                                      |
|   / __| | | |_  )   Release 8.0.0 "Harrier"                           |
|   \__ \ |_| |/ /                                                      |
|   |___/\___//___|   Suite (Solution Exporting Code)                   |
|                                                                       |
-------------------------------------------------------------------------
| SU2 Project Website: https://su2code.github.io                        |
|                                                                       |
| The SU2 Project is maintained by the SU2 Foundation                   |
| (http://su2foundation.org)                                            |
-------------------------------------------------------------------------
| Copyright 2012-2023, SU2 Contributors                                 |
|                                                                       |
| SU2 is free software; you can redistribute it and/or                  |
| modify it under the terms of the GNU Lesser General Public            |
| License as published by the Free Software Foundation; either          |
| version 2.1 of the License, or (at your option) any later version.    |
|                                                                       |
| SU2 is distributed in the hope that it will be useful,                |
| but WITHOUT ANY WARRANTY; without even the implied warranty of        |
| MERCHANTABILITY or FITNESS FOR A PARTICULAR PURPOSE. See the GNU      |
| Lesser General Public License for more details.                       |
|                                                                       |
| You should have received a copy of the GNU Lesser General Public      |
| License along with SU2. If not, see <http://www.gnu.org/licenses/>.   |
-------------------------------------------------------------------------

----------------- Physical Case Definition ( Zone 0 ) -------------------
Input mesh file name: mesh_RAE2822_turb_deform.su2

-------------------- Output Information ( Zone 0 ) ----------------------
The tabular file format is CSV (.csv).
Flow variables file name: flow.

------------- Config File Boundary Information ( Zone 0 ) ---------------
+-----------------------------------------------------------------------+
|                        Marker Type|                        Marker Name|
+-----------------------------------------------------------------------+
|                          Far-field|                           FARFIELD|
+-----------------------------------------------------------------------+
|                     Heat flux wall|                            AIRFOIL|
+-----------------------------------------------------------------------+
Two dimensional problem.
13937 grid points before partitioning.
22842 volume elements before partitioning.
2 surface markers.
192 boundary elements in index 0 (Marker = AIRFOIL).
40 boundary elements in index 1 (Marker = FARFIELD).
Executing the partitioning functions.
Building the graph adjacency structure.
Calling ParMETIS... graph partitioning complete (831 edge cuts).
Distributing ParMETIS coloring.
Rebalancing vertices.
Rebalancing volume element connectivity.
Rebalancing markers and surface elements.
14875 vertices including ghost points. 
23674 interior elements including halo cells. 
18780 triangles.
4894 quadrilaterals.
Establishing MPI communication patterns.
Identify vertices.
Storing a mapping from global to local point index.

------------------------- Solution Postprocessing -----------------------
Reading and storing the solution from restart_flow.
Volume output fields: COORDINATES, SOLUTION
  Info: Ignoring the following screen output fields:
  RMS_DENSITY, RMS_NU_TILDE, LIFT, DRAG
Screen output fields: INNER_ITER
  Info: Ignoring the following history output groups:
  RMS_RES, AERO_COEFF
History output group(s): ITER
Warning: No (valid) fields chosen for convergence monitoring. Convergence monitoring inactive.
Warning: No (valid) fields chosen for time convergence monitoring. Time convergence monitoring inactive.
|Paraview                           |flow.vtu                           |
|Paraview surface                   |surface_flow.vtu                   |
|CSV file                           |surface_flow.csv                   |

------------------------- Finalize Solver -------------------------
Deleted CGeometry container.
Deleted CSolver class.
Deleted CConfig container.
Deleted COutput class.

Completed in 0.015403 seconds on 6 cores.

------------------------- Exit Success (SU2_SOL) ------------------------

