
-------------------------------------------------------------------------
|    ___ _   _ ___                                                      |
|   / __| | | |_  )   Release 8.0.0 "Harrier"                           |
|   \__ \ |_| |/ /                                                      |
|   |___/\___//___|   Suite (Computational Fluid Dynamics Code)         |
|                                                                       |
-------------------------------------------------------------------------
| SU2 Project Website: https://su2code.github.io                        |
|                                                                       |
| The SU2 Project is maintained by the SU2 Foundation                   |
| (http://su2foundation.org)                                            |
-------------------------------------------------------------------------
| Copyright 2012-2023, SU2 Contributors                                 |
|                                                                       |
| SU2 is free software; you can redistribute it and/or                  |
| modify it under the terms of the GNU Lesser General Public            |
| License as published by the Free Software Foundation; either          |
| version 2.1 of the License, or (at your option) any later version.    |
|                                                                       |
| SU2 is distributed in the hope that it will be useful,                |
| but WITHOUT ANY WARRANTY; without even the implied warranty of        |
| MERCHANTABILITY or FITNESS FOR A PARTICULAR PURPOSE. See the GNU      |
| Lesser General Public License for more details.                       |
|                                                                       |
| You should have received a copy of the GNU Lesser General Public      |
| License along with SU2. If not, see <http://www.gnu.org/licenses/>.   |
-------------------------------------------------------------------------

Parsing config file for zone 0

----------------- Physical Case Definition ( Zone 0 ) -------------------
Compressible RANS equations.
Turbulence model: Spalart-Allmaras-noft2
Hybrid RANS/LES: No Hybrid RANS/LES
Mach number: 0.734.
Angle of attack (AoA): 2.31 deg, and angle of sideslip (AoS): 0 deg.
Reynolds number: 6.5e+06. Reference length 1.
Fixed CL mode, target value: 0.824.
Reading and writing binary SU2 native restart files.
Read flow solution from: solution_flow.dat.
Dimensional simulation.
The reference area is 1 m^2.
The semi-span will be computed using the max y(3D) value.
The reference length is 1 m.
Reference origin for moment evaluation is (0.25, 0, 0).
Surface(s) where the force coefficients are evaluated: AIRFOIL.

Surface(s) plotted in the output file: AIRFOIL.
Surface(s) affected by the design variables: AIRFOIL.
Input mesh file name: mesh_RAE2822_turb_deform.su2

--------------- Space Numerical Integration ( Zone 0 ) ------------------
Jameson-Schmidt-Turkel scheme (2nd order in space) for the flow inviscid terms.
JST viscous coefficients (2nd & 4th): 0.5, 0.02.
The method includes a grid stretching correction (p = 0.3).
Scalar upwind solver for the turbulence model.
First order integration in space.
Average of gradients with correction (viscous flow terms).
Average of gradients with correction (viscous turbulence terms).
Gradient for viscous and source terms: inverse-distance weighted Least-Squares.

--------------- Time Numerical Integration  ( Zone 0 ) ------------------
Local time stepping (steady state simulation).
Euler implicit method for the flow equations.
FGMRES is used for solving the linear system.
Using a ILU(0) preconditioning.
Convergence criteria of the linear solver: 1e-06.
Max number of linear iterations: 10.
No CFL adaptation.
Courant-Friedrichs-Lewy number:       10
Euler implicit time integration for the turbulence model.

------------------ Convergence Criteria  ( Zone 0 ) ---------------------
Maximum number of solver subiterations: 5500.
Begin convergence monitoring at iteration 10.
Residual minimum value: 1e-12.
Cauchy series min. value: 1e-06.
Number of Cauchy elements: 100.
Begin windowed time average at iteration 0.

-------------------- Output Information ( Zone 0 ) ----------------------
File writing frequency: 
+------------------------------------+
|                     File| Frequency|
+------------------------------------+
|                  RESTART|     10000|
|                 PARAVIEW|     10000|
|         SURFACE_PARAVIEW|     10000|
|              SURFACE_CSV|     10000|
+------------------------------------+
Writing the convergence history file every 1 inner iterations.
Writing the screen convergence history every 1 inner iterations.
The tabular file format is CSV (.csv).
Convergence history file name: history_direct.
Forces breakdown file name: forces_breakdown.dat.
Surface file name: surface_flow.
Volume file name: flow.
Restart file name: restart_flow.dat.

------------- Config File Boundary Information ( Zone 0 ) ---------------
+-----------------------------------------------------------------------+
|                        Marker Type|                        Marker Name|
+-----------------------------------------------------------------------+
|                          Far-field|                           FARFIELD|
+-----------------------------------------------------------------------+
|                     Heat flux wall|                            AIRFOIL|
+-----------------------------------------------------------------------+

-------------------- Output Preprocessing ( Zone 0 ) --------------------

WARNING: SURFACE_PRESSURE_DROP can only be computed for at least 2 surfaces (outlet, inlet, ...)

Screen output fields: INNER_ITER, RMS_DENSITY, RMS_NU_TILDE, LIFT, DRAG
History output group(s): ITER, RMS_RES, AERO_COEFF
Convergence field(s): RMS_DENSITY
Warning: No (valid) fields chosen for time convergence monitoring. Time convergence monitoring inactive.
Volume output fields: COORDINATES, SOLUTION, PRIMITIVE

------------------- Geometry Preprocessing ( Zone 0 ) -------------------
Two dimensional problem.
13937 grid points before partitioning.
22842 volume elements before partitioning.
2 surface markers.
192 boundary elements in index 0 (Marker = AIRFOIL).
40 boundary elements in index 1 (Marker = FARFIELD).
Executing the partitioning functions.
Building the graph adjacency structure.
Calling ParMETIS... graph partitioning complete (831 edge cuts).
Distributing ParMETIS coloring.
Rebalancing vertices.
Rebalancing volume element connectivity.
Rebalancing markers and surface elements.
14875 vertices including ghost points. 
23674 interior elements including halo cells. 
18780 triangles.
4894 quadrilaterals.
Establishing MPI communication patterns.
Setting point connectivity.
Renumbering points (Reverse Cuthill McKee Ordering).
Recomputing point connectivity.
Setting element connectivity.
Checking the numerical grid orientation.
All volume elements are correctly orientend.
All surface elements are correctly orientend.
Identifying edges and vertices.
Setting the control volume structure.
Area of the computational grid: 32209.9.
Searching for the closest normal neighbors to the surfaces.
Storing a mapping from global to local point index.
Compute the surface curvature.
Max K: 184.149. Mean K: 7.98667. Standard deviation K: 24.9174.
Checking for periodicity.
Computing mesh quality statistics for the dual control volumes.
+--------------------------------------------------------------+
|           Mesh Quality Metric|        Minimum|        Maximum|
+--------------------------------------------------------------+
|    Orthogonality Angle (deg.)|        74.9218|        89.9996|
|     CV Face Area Aspect Ratio|        1.00383|        3358.31|
|           CV Sub-Volume Ratio|        1.00053|        1216.69|
+--------------------------------------------------------------+
Finding max control volume width.
Communicating number of neighbors.
Wetted area = 2.02165 m.
Area projection in the x-plane = 0.125864 m, y-plane = 0.995873 m.
Max. coordinate in the x-direction = 1 m, y-direction = 0.0619933 m.
Min. coordinate in the x-direction = 0 m, y-direction = -0.0607387 m.
Computing wall distances.

-------------------- Solver Preprocessing ( Zone 0 ) --------------------
WARNING: AoA in the solution file (2.78016 deg.) +
         AoA offset in mesh file (0 deg.) = 2.78016 deg.
WARNING: SU2 will use the dCD/dCL provided in the direct solution file: 0.0175987.
WARNING: SU2 will use the dCMz/dCL provided in the direct solution file: 0.00315543.
Viscous flow: Computing pressure using the ideal gas law
based on the free-stream temperature and a density computed
from the Reynolds number.
Force coefficients computed using free-stream values.

-- Models:
+------------------------------------------------------------------------------+
|          Viscosity Model|        Conductivity Model|              Fluid Model|
+------------------------------------------------------------------------------+
|               SUTHERLAND|          CONSTANT_PRANDTL|             STANDARD_AIR|
+------------------------------------------------------------------------------+
-- Fluid properties:
+------------------------------------------------------------------------------+
|                  Name|    Dim. value|    Ref. value|      Unit|Non-dim. value|
+------------------------------------------------------------------------------+
|        Ref. Viscosity|     1.716e-05|             1|   N.s/m^2|     1.716e-05|
|      Sutherland Temp.|        273.15|             1|         K|        273.15|
|     Sutherland Const.|         110.4|             1|         K|         110.4|
+------------------------------------------------------------------------------+
|        Prandtl (Lam.)|             -|             -|         -|          0.71|
|       Prandtl (Turb.)|             -|             -|         -|           0.9|
+------------------------------------------------------------------------------+
|          Gas Constant|       287.058|             1|  N.m/kg.K|       287.058|
|      Spec. Heat Ratio|             -|             -|         -|           1.4|
+------------------------------------------------------------------------------+
-- Initial and free-stream conditions:
+------------------------------------------------------------------------------+
|                  Name|    Dim. value|    Ref. value|      Unit|Non-dim. value|
+------------------------------------------------------------------------------+
|       Static Pressure|         38515|             1|        Pa|         38515|
|               Density|      0.465631|             1|    kg/m^3|      0.465631|
|           Temperature|        288.15|             1|         K|        288.15|
|          Total Energy|        237984|             1|   m^2/s^2|        237984|
|            Velocity-X|       249.484|             1|       m/s|       249.484|
|            Velocity-Y|       12.1152|             1|       m/s|       12.1152|
|    Velocity Magnitude|       249.778|             1|       m/s|       249.778|
+------------------------------------------------------------------------------+
|             Viscosity|    1.7893e-05|             1|   N.s/m^2|    1.7893e-05|
|          Conductivity|             -|             1|   W/m^2.K|             -|
|     Turb. Kin. Energy|       233.959|             1|   m^2/s^2|       233.959|
|     Spec. Dissipation|        608834|             1|       1/s|        608834|
+------------------------------------------------------------------------------+
|           Mach Number|             -|             -|         -|         0.734|
|       Reynolds Number|             -|             -|         -|       6.5e+06|
+------------------------------------------------------------------------------+
Initialize Jacobian structure (Navier-Stokes). MG level: 0.
Initialize Jacobian structure (SA model).

------------------- Numerics Preprocessing ( Zone 0 ) -------------------

----------------- Integration Preprocessing ( Zone 0 ) ------------------

------------------- Iteration Preprocessing ( Zone 0 ) ------------------
Euler/Navier-Stokes/RANS fluid iteration.

------------------------------ Begin Solver -----------------------------

Simulation Run using the Single-zone Driver
WARNING: SU2 was not compiled for an AVX-capable architecture. Performance could be better,
         see https://su2code.github.io/docs_v7/Build-SU2-Linux-MacOS/#compiler-optimizations
+----------------------------------------------------------------+
|  Inner_Iter|    rms[Rho]|     rms[nu]|          CL|          CD|
+----------------------------------------------------------------+
|           0|   -4.311611|   -5.610865|    0.823732|    0.012393|
|           1|   -4.364035|   -5.705030|    0.823589|    0.012394|
|           2|   -4.420611|   -5.820239|    0.823532|    0.012388|
|           3|   -4.466774|   -5.953430|    0.823532|    0.012380|
|           4|   -4.501916|   -6.096379|    0.823559|    0.012376|
|           5|   -4.526055|   -6.221663|    0.823590|    0.012376|
|           6|   -4.539933|   -6.281683|    0.823612|    0.012378|
|           7|   -4.545389|   -6.271019|    0.823618|    0.012378|
|           8|   -4.544155|   -6.236223|    0.823610|    0.012375|
|           9|   -4.537403|   -6.207779|    0.823591|    0.012368|
|          10|   -4.526310|   -6.192629|    0.823565|    0.012356|
|          11|   -4.512516|   -6.188478|    0.823536|    0.012340|
|          12|   -4.497922|   -6.190235|    0.823508|    0.012319|
|          13|   -4.484152|   -6.192259|    0.823483|    0.012296|
|          14|   -4.472202|   -6.189731|    0.823464|    0.012269|
|          15|   -4.462420|   -6.179960|    0.823453|    0.012241|
|          16|   -4.454699|   -6.163212|    0.823452|    0.012211|
|          17|   -4.448721|   -6.142216|    0.823459|    0.012182|
|          18|   -4.444136|   -6.120604|    0.823475|    0.012152|
|          19|   -4.440663|   -6.101535|    0.823499|    0.012124|
|          20|   -4.438105|   -6.086895|    0.823529|    0.012097|
|          21|   -4.436336|   -6.077231|    0.823562|    0.012071|
|          22|   -4.435271|   -6.071964|    0.823595|    0.012048|
|          23|   -4.434851|   -6.069737|    0.823627|    0.012027|
|          24|   -4.435014|   -6.068868|    0.823655|    0.012008|
|          25|   -4.435674|   -6.067862|    0.823677|    0.011991|
|          26|   -4.436712|   -6.065872|    0.823693|    0.011976|
|          27|   -4.437975|   -6.062912|    0.823701|    0.011963|
|          28|   -4.439300|   -6.059734|    0.823704|    0.011951|
|          29|   -4.440555|   -6.057470|    0.823700|    0.011940|
|          30|   -4.441667|   -6.057244|    0.823691|    0.011930|
|          31|   -4.442632|   -6.059913|    0.823679|    0.011921|
|          32|   -4.443502|   -6.065951|    0.823664|    0.011913|
|          33|   -4.444347|   -6.075422|    0.823650|    0.011904|
|          34|   -4.445220|   -6.088007|    0.823637|    0.011896|
|          35|   -4.446134|   -6.103038|    0.823626|    0.011888|
|          36|   -4.447052|   -6.119561|    0.823620|    0.011880|
|          37|   -4.447902|   -6.136416|    0.823619|    0.011872|
|          38|   -4.448595|   -6.152385|    0.823623|    0.011864|
|          39|   -4.449053|   -6.166386|    0.823634|    0.011856|
|          40|   -4.449220|   -6.177694|    0.823651|    0.011848|
|          41|   -4.449073|   -6.186090|    0.823675|    0.011841|
|          42|   -4.448621|   -6.191877|    0.823706|    0.011834|
|          43|   -4.447892|   -6.195759|    0.823742|    0.011827|
|          44|   -4.446929|   -6.198622|    0.823783|    0.011821|
|          45|   -4.445770|   -6.201332|    0.823828|    0.011816|
|          46|   -4.444448|   -6.204575|    0.823877|    0.011812|
|          47|   -4.442978|   -6.208785|    0.823929|    0.011809|
|          48|   -4.441352|   -6.214126|    0.823982|    0.011807|
|          49|   -4.439549|   -6.220510|    0.824035|    0.011806|
|          50|   -4.437533|   -6.227639|    0.824087|    0.011806|
|          51|   -4.435264|   -6.235067|    0.824138|    0.011808|
|          52|   -4.432712|   -6.242275|    0.824187|    0.011810|
|          53|   -4.429860|   -6.248765|    0.824232|    0.011813|
|          54|   -4.426714|   -6.254149|    0.824274|    0.011818|
|          55|   -4.423307|   -6.258215|    0.824312|    0.011822|
|          56|   -4.419690|   -6.260957|    0.824345|    0.011828|
|          57|   -4.415934|   -6.262556|    0.824375|    0.011834|
|          58|   -4.412115|   -6.263319|    0.824399|    0.011841|
|          59|   -4.408305|   -6.263594|    0.824420|    0.011848|
|          60|   -4.404569|   -6.263692|    0.824437|    0.011856|
|          61|   -4.400959|   -6.263834|    0.824450|    0.011864|
|          62|   -4.397510|   -6.264121|    0.824460|    0.011872|
|          63|   -4.394241|   -6.264531|    0.824468|    0.011881|
|          64|   -4.391157|   -6.264954|    0.824473|    0.011890|
|          65|   -4.388252|   -6.265225|    0.824476|    0.011899|
|          66|   -4.385515|   -6.265183|    0.824477|    0.011908|
|          67|   -4.382932|   -6.264715|    0.824477|    0.011917|
|          68|   -4.380487|   -6.263779|    0.824476|    0.011927|
|          69|   -4.378170|   -6.262424|    0.824474|    0.011937|
|          70|   -4.375974|   -6.260773|    0.824470|    0.011946|
|          71|   -4.373899|   -6.258999|    0.824466|    0.011956|
|          72|   -4.371946|   -6.257287|    0.824461|    0.011966|
|          73|   -4.370125|   -6.255805|    0.824455|    0.011975|
|          74|   -4.368444|   -6.254678|    0.824448|    0.011985|
|          75|   -4.366914|   -6.253983|    0.824440|    0.011994|
|          76|   -4.365546|   -6.253743|    0.824432|    0.012003|
|          77|   -4.364347|   -6.253943|    0.824422|    0.012011|
|          78|   -4.363326|   -6.254541|    0.824413|    0.012020|
|          79|   -4.362484|   -6.255485|    0.824403|    0.012028|
|          80|   -4.361823|   -6.256720|    0.824392|    0.012036|
|          81|   -4.361339|   -6.258201|    0.824382|    0.012043|
|          82|   -4.361025|   -6.259894|    0.824371|    0.012050|
|          83|   -4.360872|   -6.261778|    0.824361|    0.012057|
|          84|   -4.360865|   -6.263843|    0.824351|    0.012064|
|          85|   -4.360987|   -6.266080|    0.824341|    0.012071|
|          86|   -4.361216|   -6.268483|    0.824332|    0.012077|
|          87|   -4.361530|   -6.271036|    0.824324|    0.012083|
|          88|   -4.361902|   -6.273719|    0.824316|    0.012089|
|          89|   -4.362306|   -6.276504|    0.824309|    0.012095|
|          90|   -4.362716|   -6.279356|    0.824302|    0.012101|
|          91|   -4.363107|   -6.282234|    0.824296|    0.012107|
|          92|   -4.363461|   -6.285095|    0.824290|    0.012112|
|          93|   -4.363765|   -6.287899|    0.824284|    0.012118|
|          94|   -4.364013|   -6.290606|    0.824278|    0.012123|
|          95|   -4.364208|   -6.293187|    0.824273|    0.012128|
|          96|   -4.364360|   -6.295615|    0.824267|    0.012133|
|          97|   -4.364489|   -6.297874|    0.824260|    0.012138|
|          98|   -4.364618|   -6.299953|    0.824253|    0.012143|
|          99|   -4.364776|   -6.301853|    0.824245|    0.012147|
|         100|   -4.364992|   -6.303575|    0.824237|    0.012151|
|         101|   -4.365295|   -6.305131|    0.824227|    0.012137|
+-----------------------------------------------------------------------+
|Fixed CL Mode                           |Value                         |
+-----------------------------------------------------------------------+
|Current CL                              |0.824227                      |
|Target CL                               |0.824                         |
|Previous AOA                            |2.78016                       |
|Changed AoA by                          |-0.0011828                    |
+-----------------------------------------------------------------------+
+----------------------------------------------------------------+
|  Inner_Iter|    rms[Rho]|     rms[nu]|          CL|          CD|
+----------------------------------------------------------------+
|         102|   -3.119984|   -6.303491|    0.824216|    0.012140|
|         103|   -3.504416|   -6.306342|    0.824204|    0.012143|
|         104|   -3.750418|   -6.307913|    0.824190|    0.012145|
|         105|   -3.829631|   -6.309162|    0.824176|    0.012146|
|         106|   -3.880097|   -6.310250|    0.824160|    0.012147|
|         107|   -3.942565|   -6.311228|    0.824143|    0.012148|
|         108|   -4.015361|   -6.312121|    0.824125|    0.012148|
|         109|   -4.083732|   -6.312945|    0.824107|    0.012147|
|         110|   -4.133492|   -6.313715|    0.824087|    0.012146|
|         111|   -4.162730|   -6.314441|    0.824068|    0.012144|
|         112|   -4.178001|   -6.315127|    0.824047|    0.012142|
|         113|   -4.185068|   -6.315786|    0.824027|    0.012139|
|         114|   -4.187485|   -6.316429|    0.824007|    0.012135|
|         115|   -4.188460|   -6.317065|    0.823987|    0.012132|
|         116|   -4.190968|   -6.317704|    0.823968|    0.012127|
|         117|   -4.196723|   -6.318358|    0.823949|    0.012123|
|         118|   -4.205672|   -6.319046|    0.823931|    0.012118|
|         119|   -4.216370|   -6.319787|    0.823914|    0.012113|
|         120|   -4.226936|   -6.320590|    0.823897|    0.012107|
|         121|   -4.236047|   -6.321467|    0.823882|    0.012102|
|         122|   -4.243412|   -6.322432|    0.823868|    0.012096|
|         123|   -4.249517|   -6.323497|    0.823855|    0.012090|
|         124|   -4.255004|   -6.324676|    0.823842|    0.012084|
|         125|   -4.260215|   -6.325974|    0.823831|    0.012078|
|         126|   -4.265094|   -6.327403|    0.823821|    0.012072|
|         127|   -4.269346|   -6.328965|    0.823812|    0.012066|
|         128|   -4.272634|   -6.330665|    0.823804|    0.012059|
|         129|   -4.274713|   -6.332510|    0.823797|    0.012053|
|         130|   -4.275479|   -6.334501|    0.823790|    0.012047|
|         131|   -4.274983|   -6.336637|    0.823784|    0.012041|
|         132|   -4.273419|   -6.338917|    0.823778|    0.012035|
|         133|   -4.271089|   -6.341339|    0.823773|    0.012028|
|         134|   -4.268350|   -6.343901|    0.823767|    0.012022|
|         135|   -4.265532|   -6.346597|    0.823762|    0.012016|
|         136|   -4.262886|   -6.349424|    0.823757|    0.012010|
|         137|   -4.260547|   -6.352375|    0.823752|    0.012004|
|         138|   -4.258539|   -6.355445|    0.823747|    0.011998|
|         139|   -4.256793|   -6.358625|    0.823742|    0.011991|
|         140|   -4.255184|   -6.361906|    0.823737|    0.011985|
|         141|   -4.253570|   -6.365280|    0.823731|    0.011979|
|         142|   -4.251829|   -6.368741|    0.823725|    0.011973|
|         143|   -4.249890|   -6.372279|    0.823719|    0.011967|
|         144|   -4.247748|   -6.375880|    0.823713|    0.011960|
|         145|   -4.245462|   -6.379535|    0.823707|    0.011954|
|         146|   -4.243132|   -6.383235|    0.823700|    0.011948|
|         147|   -4.240873|   -6.386976|    0.823694|    0.011942|
|         148|   -4.238788|   -6.390752|    0.823687|    0.011936|
|         149|   -4.236942|   -6.394559|    0.823680|    0.011930|
|         150|   -4.235361|   -6.398397|    0.823673|    0.011924|
|         151|   -4.234033|   -6.402272|    0.823667|    0.011918|
|         152|   -4.232915|   -6.406192|    0.823660|    0.011912|
|         153|   -4.231953|   -6.410169|    0.823654|    0.011906|
|         154|   -4.231092|   -6.414215|    0.823648|    0.011901|
|         155|   -4.230288|   -6.418349|    0.823642|    0.011895|
|         156|   -4.229514|   -6.422593|    0.823636|    0.011890|
|         157|   -4.228759|   -6.426967|    0.823631|    0.011885|
|         158|   -4.228025|   -6.431493|    0.823626|    0.011881|
|         159|   -4.227325|   -6.436193|    0.823621|    0.011876|
|         160|   -4.226674|   -6.441089|    0.823617|    0.011872|
|         161|   -4.226086|   -6.446205|    0.823613|    0.011868|
|         162|   -4.225573|   -6.451564|    0.823609|    0.011865|
|         163|   -4.225141|   -6.457180|    0.823606|    0.011861|
|         164|   -4.224793|   -6.463062|    0.823603|    0.011858|
|         165|   -4.224528|   -6.469217|    0.823600|    0.011856|
|         166|   -4.224343|   -6.475649|    0.823598|    0.011853|
|         167|   -4.224234|   -6.482362|    0.823596|    0.011851|
|         168|   -4.224199|   -6.489368|    0.823594|    0.011849|
|         169|   -4.224233|   -6.496665|    0.823593|    0.011848|
|         170|   -4.224333|   -6.504242|    0.823592|    0.011847|
|         171|   -4.224493|   -6.512084|    0.823591|    0.011846|
|         172|   -4.224707|   -6.520173|    0.823591|    0.011846|
|         173|   -4.224967|   -6.528491|    0.823590|    0.011846|
|         174|   -4.225262|   -6.537014|    0.823590|    0.011846|
|         175|   -4.225580|   -6.545718|    0.823590|    0.011846|
|         176|   -4.225906|   -6.554573|    0.823591|    0.011847|
|         177|   -4.226224|   -6.563554|    0.823592|    0.011848|
|         178|   -4.226517|   -6.572633|    0.823593|    0.011850|
|         179|   -4.226768|   -6.581781|    0.823594|    0.011851|
|         180|   -4.226962|   -6.590983|    0.823595|    0.011853|
|         181|   -4.227086|   -6.600224|    0.823596|    0.011855|
|         182|   -4.227129|   -6.609480|    0.823598|    0.011858|
|         183|   -4.227088|   -6.618725|    0.823600|    0.011860|
|         184|   -4.226963|   -6.627939|    0.823602|    0.011863|
|         185|   -4.226761|   -6.637100|    0.823605|    0.011866|
|         186|   -4.226498|   -6.646189|    0.823607|    0.011869|
|         187|   -4.226197|   -6.655190|    0.823610|    0.011873|
|         188|   -4.225888|   -6.664086|    0.823613|    0.011876|
|         189|   -4.225607|   -6.672860|    0.823616|    0.011880|
|         190|   -4.225398|   -6.681496|    0.823619|    0.011884|
|         191|   -4.225309|   -6.689978|    0.823622|    0.011888|
|         192|   -4.225393|   -6.698298|    0.823625|    0.011893|
|         193|   -4.225704|   -6.706439|    0.823629|    0.011897|
|         194|   -4.226296|   -6.714388|    0.823632|    0.011902|
|         195|   -4.227225|   -6.722139|    0.823636|    0.011907|
|         196|   -4.228543|   -6.729680|    0.823639|    0.011911|
|         197|   -4.230298|   -6.737001|    0.823643|    0.011916|
|         198|   -4.232535|   -6.744097|    0.823646|    0.011921|
|         199|   -4.235293|   -6.750961|    0.823650|    0.011927|
|         200|   -4.238604|   -6.757591|    0.823653|    0.011932|
|         201|   -4.242492|   -6.763989|    0.823656|    0.011962|
+-----------------------------------------------------------------------+
|Fixed CL Mode                           |Value                         |
+-----------------------------------------------------------------------+
|Current CL                              |0.823656                      |
|Target CL                               |0.824                         |
|Previous AOA                            |2.77898                       |
|Changed AoA by                          |0.0017348                     |
+-----------------------------------------------------------------------+
+----------------------------------------------------------------+
|  Inner_Iter|    rms[Rho]|     rms[nu]|          CL|          CD|
+----------------------------------------------------------------+
|         202|   -2.953599|   -6.717115|    0.823659|    0.011967|
|         203|   -3.335879|   -6.747263|    0.823662|    0.011972|
|         204|   -3.573689|   -6.760436|    0.823665|    0.011978|
|         205|   -3.647671|   -6.770045|    0.823667|    0.011983|
|         206|   -3.697354|   -6.778236|    0.823669|    0.011988|
|         207|   -3.761592|   -6.785512|    0.823671|    0.011994|
|         208|   -3.839534|   -6.792177|    0.823673|    0.011999|
|         209|   -3.918313|   -6.798372|    0.823674|    0.012004|
|         210|   -3.983557|   -6.804158|    0.823675|    0.012009|
|         211|   -4.029860|   -6.809527|    0.823676|    0.012014|
|         212|   -4.060227|   -6.814457|    0.823676|    0.012019|
|         213|   -4.078690|   -6.818968|    0.823675|    0.012024|
|         214|   -4.088553|   -6.823122|    0.823675|    0.012028|
|         215|   -4.094053|   -6.826979|    0.823673|    0.012033|
|         216|   -4.099853|   -6.830553|    0.823672|    0.012037|
|         217|   -4.109105|   -6.833840|    0.823669|    0.012041|
|         218|   -4.122466|   -6.836850|    0.823666|    0.012045|
|         219|   -4.138477|   -6.839611|    0.823663|    0.012049|
|         220|   -4.154768|   -6.842162|    0.823659|    0.012052|
|         221|   -4.169463|   -6.844542|    0.823655|    0.012056|
|         222|   -4.182025|   -6.846770|    0.823650|    0.012059|
|         223|   -4.193061|   -6.848850|    0.823645|    0.012062|
|         224|   -4.203480|   -6.850768|    0.823639|    0.012064|
|         225|   -4.213795|   -6.852507|    0.823632|    0.012066|
|         226|   -4.223943|   -6.854065|    0.823625|    0.012069|
|         227|   -4.233502|   -6.855446|    0.823618|    0.012070|
|         228|   -4.241998|   -6.856648|    0.823610|    0.012072|
|         229|   -4.249098|   -6.857676|    0.823602|    0.012073|
|         230|   -4.254679|   -6.858530|    0.823594|    0.012074|
|         231|   -4.258832|   -6.859229|    0.823585|    0.012075|
|         232|   -4.261854|   -6.859793|    0.823576|    0.012075|
|         233|   -4.264215|   -6.860243|    0.823567|    0.012075|
|         234|   -4.266473|   -6.860620|    0.823558|    0.012075|
|         235|   -4.269167|   -6.860944|    0.823548|    0.012075|
|         236|   -4.272718|   -6.861226|    0.823539|    0.012074|
|         237|   -4.277364|   -6.861470|    0.823529|    0.012074|
|         238|   -4.283146|   -6.861661|    0.823520|    0.012073|
|         239|   -4.289920|   -6.861778|    0.823510|    0.012071|
|         240|   -4.297400|   -6.861808|    0.823501|    0.012070|
|         241|   -4.305211|   -6.861723|    0.823492|    0.012068|
|         242|   -4.312973|   -6.861506|    0.823483|    0.012066|
|         243|   -4.320381|   -6.861146|    0.823475|    0.012064|
|         244|   -4.327278|   -6.860630|    0.823467|    0.012062|
|         245|   -4.333690|   -6.859941|    0.823460|    0.012060|
|         246|   -4.339803|   -6.859063|    0.823453|    0.012057|
|         247|   -4.345898|   -6.857993|    0.823446|    0.012055|
|         248|   -4.352266|   -6.856726|    0.823441|    0.012052|
|         249|   -4.359140|   -6.855264|    0.823436|    0.012049|
|         250|   -4.366642|   -6.853615|    0.823432|    0.012047|
|         251|   -4.374776|   -6.851803|    0.823428|    0.012044|
|         252|   -4.383436|   -6.849850|    0.823426|    0.012041|
|         253|   -4.392449|   -6.847790|    0.823424|    0.012038|
|         254|   -4.401610|   -6.845658|    0.823424|    0.012035|
|         255|   -4.410731|   -6.843506|    0.823425|    0.012032|
|         256|   -4.419670|   -6.841386|    0.823426|    0.012029|
|         257|   -4.428350|   -6.839357|    0.823429|    0.012026|
|         258|   -4.436755|   -6.837478|    0.823433|    0.012023|
|         259|   -4.444918|   -6.835812|    0.823437|    0.012020|
|         260|   -4.452896|   -6.834422|    0.823443|    0.012017|
|         261|   -4.460750|   -6.833366|    0.823450|    0.012014|
|         262|   -4.468525|   -6.832699|    0.823459|    0.012011|
|         263|   -4.476239|   -6.832470|    0.823468|    0.012009|
|         264|   -4.483888|   -6.832724|    0.823477|    0.012006|
|         265|   -4.491444|   -6.833496|    0.823488|    0.012004|
|         266|   -4.498865|   -6.834812|    0.823500|    0.012001|
|         267|   -4.506104|   -6.836687|    0.823512|    0.011999|
|         268|   -4.513112|   -6.839125|    0.823525|    0.011997|
|         269|   -4.519848|   -6.842116|    0.823539|    0.011994|
|         270|   -4.526271|   -6.845635|    0.823553|    0.011992|
|         271|   -4.532348|   -6.849642|    0.823567|    0.011990|
|         272|   -4.538047|   -6.854081|    0.823581|    0.011989|
|         273|   -4.543339|   -6.858870|    0.823596|    0.011987|
|         274|   -4.548196|   -6.863922|    0.823611|    0.011985|
|         275|   -4.552592|   -6.869127|    0.823625|    0.011984|
|         276|   -4.556505|   -6.874356|    0.823639|    0.011982|
|         277|   -4.559921|   -6.879491|    0.823653|    0.011981|
|         278|   -4.562830|   -6.884400|    0.823667|    0.011979|
|         279|   -4.565236|   -6.888957|    0.823680|    0.011978|
|         280|   -4.567149|   -6.893046|    0.823692|    0.011977|
|         281|   -4.568591|   -6.896556|    0.823704|    0.011976|
|         282|   -4.569591|   -6.899400|    0.823715|    0.011976|
|         283|   -4.570187|   -6.901523|    0.823725|    0.011975|
|         284|   -4.570423|   -6.902899|    0.823735|    0.011974|
|         285|   -4.570347|   -6.903545|    0.823744|    0.011974|
|         286|   -4.570008|   -6.903503|    0.823752|    0.011973|
|         287|   -4.569458|   -6.902851|    0.823759|    0.011973|
|         288|   -4.568747|   -6.901705|    0.823765|    0.011973|
|         289|   -4.567922|   -6.900189|    0.823770|    0.011973|
|         290|   -4.567029|   -6.898436|    0.823775|    0.011973|
|         291|   -4.566108|   -6.896588|    0.823779|    0.011973|
|         292|   -4.565197|   -6.894779|    0.823782|    0.011974|
|         293|   -4.564327|   -6.893132|    0.823784|    0.011974|
|         294|   -4.563527|   -6.891763|    0.823785|    0.011975|
|         295|   -4.562819|   -6.890771|    0.823786|    0.011976|
|         296|   -4.562224|   -6.890238|    0.823787|    0.011976|
|         297|   -4.561755|   -6.890233|    0.823786|    0.011977|
|         298|   -4.561424|   -6.890802|    0.823786|    0.011978|
|         299|   -4.561242|   -6.891978|    0.823784|    0.011980|
|         300|   -4.561215|   -6.893776|    0.823783|    0.011981|
|         301|   -4.561347|   -6.896199|    0.823780|    0.011998|
+-----------------------------------------------------------------------+
|Fixed CL Mode                           |Value                         |
+-----------------------------------------------------------------------+
|Current CL                              |0.82378                       |
|Target CL                               |0.824                         |
|Previous AOA                            |2.78071                       |
|Changed AoA by                          |0.00108631                    |
+-----------------------------------------------------------------------+
+----------------------------------------------------------------+
|  Inner_Iter|    rms[Rho]|     rms[nu]|          CL|          CD|
+----------------------------------------------------------------+
|         302|   -3.157050|   -6.860235|    0.823778|    0.011999|
|         303|   -3.539334|   -6.882437|    0.823775|    0.012001|
|         304|   -3.777418|   -6.892434|    0.823772|    0.012003|
|         305|   -3.852391|   -6.900310|    0.823769|    0.012004|
|         306|   -3.903198|   -6.907579|    0.823765|    0.012006|
|         307|   -3.968599|   -6.914626|    0.823762|    0.012008|
|         308|   -4.047906|   -6.921559|    0.823758|    0.012010|
|         309|   -4.128365|   -6.928433|    0.823754|    0.012012|
|         310|   -4.195520|   -6.935268|    0.823750|    0.012014|
|         311|   -4.243731|   -6.942037|    0.823747|    0.012016|
|         312|   -4.275721|   -6.948701|    0.823743|    0.012018|
|         313|   -4.295172|   -6.955246|    0.823739|    0.012020|
|         314|   -4.305162|   -6.961682|    0.823735|    0.012022|
|         315|   -4.310063|   -6.967995|    0.823731|    0.012024|
|         316|   -4.314916|   -6.974147|    0.823728|    0.012026|
|         317|   -4.323239|   -6.980085|    0.823724|    0.012028|
|         318|   -4.335942|   -6.985763|    0.823721|    0.012030|
|         319|   -4.351754|   -6.991169|    0.823718|    0.012032|
|         320|   -4.368480|   -6.996313|    0.823715|    0.012034|
|         321|   -4.384397|   -7.001213|    0.823712|    0.012036|
|         322|   -4.399060|   -7.005881|    0.823710|    0.012038|
|         323|   -4.413095|   -7.010325|    0.823707|    0.012040|
|         324|   -4.427361|   -7.014554|    0.823705|    0.012042|
|         325|   -4.442248|   -7.018586|    0.823703|    0.012043|
|         326|   -4.457495|   -7.022450|    0.823701|    0.012045|
|         327|   -4.472408|   -7.026178|    0.823700|    0.012047|
|         328|   -4.486213|   -7.029820|    0.823698|    0.012048|
|         329|   -4.498307|   -7.033429|    0.823697|    0.012050|
|         330|   -4.508375|   -7.037054|    0.823696|    0.012051|
|         331|   -4.516428|   -7.040753|    0.823695|    0.012052|
|         332|   -4.522788|   -7.044579|    0.823695|    0.012054|
|         333|   -4.528028|   -7.048578|    0.823694|    0.012055|
|         334|   -4.532845|   -7.052781|    0.823694|    0.012056|
|         335|   -4.537904|   -7.057213|    0.823693|    0.012057|
|         336|   -4.543692|   -7.061892|    0.823693|    0.012057|
|         337|   -4.550433|   -7.066826|    0.823693|    0.012058|
|         338|   -4.558070|   -7.072017|    0.823694|    0.012059|
|         339|   -4.566288|   -7.077447|    0.823694|    0.012059|
|         340|   -4.574575|   -7.083100|    0.823694|    0.012059|
|         341|   -4.582322|   -7.088966|    0.823695|    0.012060|
|         342|   -4.588951|   -7.095037|    0.823695|    0.012060|
|         343|   -4.594055|   -7.101303|    0.823696|    0.012060|
|         344|   -4.597504|   -7.107749|    0.823697|    0.012059|
|         345|   -4.599471|   -7.114353|    0.823698|    0.012059|
|         346|   -4.600362|   -7.121085|    0.823699|    0.012059|
|         347|   -4.600684|   -7.127899|    0.823700|    0.012058|
|         348|   -4.600914|   -7.134747|    0.823701|    0.012058|
|         349|   -4.601396|   -7.141572|    0.823702|    0.012057|
|         350|   -4.602301|   -7.148305|    0.823704|    0.012056|
|         351|   -4.603639|   -7.154866|    0.823705|    0.012055|
|         352|   -4.605293|   -7.161173|    0.823707|    0.012054|
|         353|   -4.607085|   -7.167132|    0.823709|    0.012053|
|         354|   -4.608834|   -7.172646|    0.823711|    0.012052|
|         355|   -4.610400|   -7.177624|    0.823714|    0.012051|
|         356|   -4.611715|   -7.181972|    0.823717|    0.012050|
|         357|   -4.612787|   -7.185615|    0.823720|    0.012049|
|         358|   -4.613685|   -7.188496|    0.823723|    0.012047|
|         359|   -4.614514|   -7.190571|    0.823727|    0.012046|
|         360|   -4.615393|   -7.191824|    0.823731|    0.012044|
|         361|   -4.616427|   -7.192271|    0.823735|    0.012043|
|         362|   -4.617701|   -7.191954|    0.823740|    0.012042|
|         363|   -4.619269|   -7.190936|    0.823745|    0.012040|
|         364|   -4.621164|   -7.189314|    0.823750|    0.012039|
|         365|   -4.623401|   -7.187202|    0.823756|    0.012037|
|         366|   -4.625983|   -7.184734|    0.823761|    0.012036|
|         367|   -4.628912|   -7.182052|    0.823768|    0.012034|
|         368|   -4.632188|   -7.179296|    0.823774|    0.012033|
|         369|   -4.635814|   -7.176613|    0.823781|    0.012031|
|         370|   -4.639796|   -7.174135|    0.823788|    0.012030|
|         371|   -4.644139|   -7.171986|    0.823795|    0.012028|
|         372|   -4.648847|   -7.170277|    0.823802|    0.012027|
|         373|   -4.653922|   -7.169105|    0.823809|    0.012026|
|         374|   -4.659361|   -7.168551|    0.823817|    0.012024|
|         375|   -4.665154|   -7.168671|    0.823824|    0.012023|
|         376|   -4.671289|   -7.169502|    0.823831|    0.012022|
|         377|   -4.677747|   -7.171061|    0.823839|    0.012021|
|         378|   -4.684507|   -7.173347|    0.823846|    0.012020|
|         379|   -4.691542|   -7.176344|    0.823853|    0.012019|
|         380|   -4.698822|   -7.179999|    0.823859|    0.012018|
|         381|   -4.706314|   -7.184246|    0.823866|    0.012017|
|         382|   -4.713979|   -7.188998|    0.823872|    0.012016|
|         383|   -4.721777|   -7.194140|    0.823879|    0.012016|
|         384|   -4.729662|   -7.199531|    0.823884|    0.012015|
|         385|   -4.737588|   -7.205018|    0.823890|    0.012015|
|         386|   -4.745503|   -7.210442|    0.823895|    0.012014|
|         387|   -4.753354|   -7.215633|    0.823900|    0.012014|
|         388|   -4.761086|   -7.220424|    0.823905|    0.012014|
|         389|   -4.768643|   -7.224669|    0.823909|    0.012013|
|         390|   -4.775968|   -7.228253|    0.823913|    0.012013|
|         391|   -4.783005|   -7.231081|    0.823917|    0.012013|
|         392|   -4.789702|   -7.233099|    0.823921|    0.012014|
|         393|   -4.796008|   -7.234303|    0.823924|    0.012014|
|         394|   -4.801876|   -7.234736|    0.823926|    0.012014|
|         395|   -4.807264|   -7.234477|    0.823929|    0.012015|
|         396|   -4.812139|   -7.233641|    0.823931|    0.012015|
|         397|   -4.816470|   -7.232364|    0.823933|    0.012016|
|         398|   -4.820239|   -7.230805|    0.823935|    0.012016|
|         399|   -4.823432|   -7.229122|    0.823937|    0.012017|
|         400|   -4.826047|   -7.227473|    0.823938|    0.012018|
|         401|   -4.828089|   -7.226000|    0.823939|    0.012023|
+-----------------------------------------------------------------------+
|Fixed CL Mode                           |Value                         |
+-----------------------------------------------------------------------+
|Current CL                              |0.823939                      |
|Target CL                               |0.824                         |
|Previous AOA                            |2.7818                        |
|Changed AoA by                          |0.000309632                   |
+-----------------------------------------------------------------------+
+----------------------------------------------------------------+
|  Inner_Iter|    rms[Rho]|     rms[nu]|          CL|          CD|
+----------------------------------------------------------------+
|         402|   -3.701710|   -7.210355|    0.823940|    0.012024|
|         403|   -4.081042|   -7.217103|    0.823941|    0.012025|
|         404|   -4.309797|   -7.219183|    0.823942|    0.012026|
|         405|   -4.377081|   -7.220796|    0.823942|    0.012027|
|         406|   -4.421216|   -7.222603|    0.823943|    0.012028|
|         407|   -4.477340|   -7.224774|    0.823943|    0.012029|
|         408|   -4.542700|   -7.227376|    0.823943|    0.012030|
|         409|   -4.604637|   -7.230447|    0.823944|    0.012031|
|         410|   -4.652036|   -7.233992|    0.823944|    0.012033|
|         411|   -4.683078|   -7.237988|    0.823944|    0.012034|
|         412|   -4.701857|   -7.242390|    0.823944|    0.012035|
|         413|   -4.712105|   -7.247149|    0.823944|    0.012036|
|         414|   -4.716390|   -7.252201|    0.823945|    0.012037|
|         415|   -4.717469|   -7.257468|    0.823945|    0.012039|
|         416|   -4.718175|   -7.262849|    0.823945|    0.012040|
|         417|   -4.720377|   -7.268230|    0.823946|    0.012041|
|         418|   -4.724481|   -7.273501|    0.823947|    0.012042|
|         419|   -4.729775|   -7.278554|    0.823947|    0.012043|
|         420|   -4.735217|   -7.283284|    0.823948|    0.012044|
|         421|   -4.740147|   -7.287594|    0.823949|    0.012045|
|         422|   -4.744523|   -7.291395|    0.823950|    0.012046|
|         423|   -4.748692|   -7.294615|    0.823952|    0.012048|
|         424|   -4.752999|   -7.297199|    0.823953|    0.012048|
|         425|   -4.757538|   -7.299118|    0.823955|    0.012049|
|         426|   -4.762152|   -7.300367|    0.823956|    0.012050|
|         427|   -4.766576|   -7.300968|    0.823958|    0.012051|
|         428|   -4.770581|   -7.300969|    0.823960|    0.012052|
|         429|   -4.774057|   -7.300431|    0.823962|    0.012053|
|         430|   -4.777022|   -7.299434|    0.823965|    0.012054|
|         431|   -4.779598|   -7.298064|    0.823967|    0.012054|
|         432|   -4.781987|   -7.296412|    0.823969|    0.012055|
|         433|   -4.784433|   -7.294568|    0.823972|    0.012055|
|         434|   -4.787187|   -7.292613|    0.823974|    0.012056|
|         435|   -4.790458|   -7.290623|    0.823977|    0.012056|
|         436|   -4.794382|   -7.288668|    0.823980|    0.012057|
|         437|   -4.799004|   -7.286807|    0.823983|    0.012057|
|         438|   -4.804281|   -7.285092|    0.823985|    0.012057|
|         439|   -4.810095|   -7.283566|    0.823988|    0.012057|
|         440|   -4.816277|   -7.282268|    0.823991|    0.012057|
|         441|   -4.822641|   -7.281230|    0.823993|    0.012057|
|         442|   -4.829013|   -7.280480|    0.823996|    0.012057|
|         443|   -4.835264|   -7.280042|    0.823998|    0.012057|
|         444|   -4.841329|   -7.279937|    0.824001|    0.012057|
|         445|   -4.847211|   -7.280179|    0.824003|    0.012057|
|         446|   -4.852970|   -7.280778|    0.824005|    0.012056|
|         447|   -4.858694|   -7.281736|    0.824007|    0.012056|
|         448|   -4.864470|   -7.283051|    0.824009|    0.012055|
|         449|   -4.870354|   -7.284714|    0.824011|    0.012054|
|         450|   -4.876358|   -7.286706|    0.824013|    0.012054|
|         451|   -4.882443|   -7.288992|    0.824015|    0.012053|
|         452|   -4.888532|   -7.291536|    0.824016|    0.012052|
|         453|   -4.894519|   -7.294296|    0.824018|    0.012051|
|         454|   -4.900294|   -7.297215|    0.824019|    0.012050|
|         455|   -4.905755|   -7.300228|    0.824021|    0.012049|
|         456|   -4.910822|   -7.303259|    0.824022|    0.012048|
|         457|   -4.915442|   -7.306223|    0.824023|    0.012047|
|         458|   -4.919587|   -7.309031|    0.824025|    0.012046|
|         459|   -4.923251|   -7.311591|    0.824026|    0.012044|
|         460|   -4.926440|   -7.313815|    0.824027|    0.012043|
|         461|   -4.929167|   -7.315619|    0.824029|    0.012042|
|         462|   -4.931444|   -7.316935|    0.824030|    0.012040|
|         463|   -4.933287|   -7.317711|    0.824031|    0.012039|
|         464|   -4.934707|   -7.317913|    0.824033|    0.012037|
|         465|   -4.935719|   -7.317536|    0.824034|    0.012036|
|         466|   -4.936341|   -7.316594|    0.824036|    0.012034|
|         467|   -4.936597|   -7.315129|    0.824038|    0.012033|
|         468|   -4.936517|   -7.313203|    0.824040|    0.012031|
|         469|   -4.936135|   -7.310897|    0.824042|    0.012029|
|         470|   -4.935492|   -7.308303|    0.824044|    0.012028|
|         471|   -4.934632|   -7.305525|    0.824046|    0.012026|
|         472|   -4.933600|   -7.302669|    0.824048|    0.012025|
|         473|   -4.932440|   -7.299841|    0.824051|    0.012023|
|         474|   -4.931198|   -7.297140|    0.824053|    0.012022|
|         475|   -4.929917|   -7.294657|    0.824056|    0.012020|
|         476|   -4.928638|   -7.292472|    0.824059|    0.012019|
|         477|   -4.927401|   -7.290653|    0.824061|    0.012018|
|         478|   -4.926242|   -7.289252|    0.824064|    0.012016|
|         479|   -4.925197|   -7.288308|    0.824067|    0.012015|
|         480|   -4.924297|   -7.287849|    0.824070|    0.012014|
|         481|   -4.923574|   -7.287886|    0.824073|    0.012013|
|         482|   -4.923055|   -7.288419|    0.824076|    0.012012|
|         483|   -4.922765|   -7.289434|    0.824079|    0.012011|
|         484|   -4.922727|   -7.290909|    0.824082|    0.012010|
|         485|   -4.922962|   -7.292812|    0.824085|    0.012009|
|         486|   -4.923487|   -7.295099|    0.824087|    0.012008|
|         487|   -4.924318|   -7.297721|    0.824090|    0.012007|
|         488|   -4.925468|   -7.300625|    0.824093|    0.012007|
|         489|   -4.926950|   -7.303750|    0.824096|    0.012006|
|         490|   -4.928770|   -7.307034|    0.824099|    0.012006|
|         491|   -4.930937|   -7.310414|    0.824101|    0.012005|
|         492|   -4.933455|   -7.313830|    0.824104|    0.012005|
|         493|   -4.936324|   -7.317225|    0.824107|    0.012005|
|         494|   -4.939545|   -7.320551|    0.824109|    0.012005|
|         495|   -4.943114|   -7.323765|    0.824112|    0.012005|
|         496|   -4.947025|   -7.326836|    0.824114|    0.012005|
|         497|   -4.951268|   -7.329747|    0.824116|    0.012005|
|         498|   -4.955830|   -7.332486|    0.824118|    0.012005|
|         499|   -4.960696|   -7.335053|    0.824121|    0.012006|
|         500|   -4.965845|   -7.337459|    0.824123|    0.012006|
|         501|   -4.971253|   -7.339721|    0.824125|    0.011998|
+-----------------------------------------------------------------------+
|Fixed CL Mode                           |Value                         |
+-----------------------------------------------------------------------+
|Current CL                              |0.824125                      |
|Target CL                               |0.824                         |
|Previous AOA                            |2.78211                       |
|Changed AoA by                          |-0.000613052                  |
+-----------------------------------------------------------------------+
+----------------------------------------------------------------+
|  Inner_Iter|    rms[Rho]|     rms[nu]|          CL|          CD|
+----------------------------------------------------------------+
|         502|   -3.405590|   -7.257142|    0.824127|    0.011999|
|         503|   -3.788751|   -7.297397|    0.824129|    0.011999|
|         504|   -4.030368|   -7.311804|    0.824130|    0.012000|
|         505|   -4.108763|   -7.320600|    0.824132|    0.012001|
|         506|   -4.162503|   -7.327322|    0.824134|    0.012002|
|         507|   -4.231703|   -7.332907|    0.824136|    0.012003|
|         508|   -4.316503|   -7.337727|    0.824137|    0.012004|
|         509|   -4.404022|   -7.342023|    0.824139|    0.012005|
|         510|   -4.478108|   -7.345942|    0.824141|    0.012006|
|         511|   -4.531178|   -7.349528|    0.824142|    0.012007|
|         512|   -4.565491|   -7.352813|    0.824144|    0.012009|
|         513|   -4.585210|   -7.355894|    0.824145|    0.012010|
|         514|   -4.594187|   -7.358911|    0.824147|    0.012011|
|         515|   -4.597836|   -7.361955|    0.824149|    0.012013|
|         516|   -4.602145|   -7.365044|    0.824150|    0.012014|
|         517|   -4.611098|   -7.368144|    0.824152|    0.012016|
|         518|   -4.625555|   -7.371224|    0.824153|    0.012017|
|         519|   -4.643775|   -7.374284|    0.824155|    0.012018|
|         520|   -4.662834|   -7.377345|    0.824157|    0.012020|
|         521|   -4.680314|   -7.380429|    0.824158|    0.012021|
|         522|   -4.695431|   -7.383534|    0.824160|    0.012023|
|         523|   -4.708908|   -7.386631|    0.824162|    0.012024|
|         524|   -4.721923|   -7.389686|    0.824163|    0.012026|
|         525|   -4.735178|   -7.392664|    0.824165|    0.012027|
|         526|   -4.748615|   -7.395541|    0.824167|    0.012029|
|         527|   -4.761661|   -7.398302|    0.824168|    0.012030|
|         528|   -4.773606|   -7.400938|    0.824170|    0.012032|
|         529|   -4.783874|   -7.403442|    0.824171|    0.012033|
|         530|   -4.792132|   -7.405806|    0.824173|    0.012034|
|         531|   -4.798339|   -7.408021|    0.824174|    0.012036|
|         532|   -4.802764|   -7.410077|    0.824176|    0.012037|
|         533|   -4.805959|   -7.411960|    0.824177|    0.012038|
|         534|   -4.808655|   -7.413655|    0.824178|    0.012039|
|         535|   -4.811587|   -7.415139|    0.824180|    0.012040|
|         536|   -4.815342|   -7.416394|    0.824181|    0.012042|
|         537|   -4.820257|   -7.417399|    0.824181|    0.012043|
|         538|   -4.826395|   -7.418144|    0.824182|    0.012043|
|         539|   -4.833558|   -7.418623|    0.824183|    0.012044|
|         540|   -4.841342|   -7.418840|    0.824183|    0.012045|
|         541|   -4.849221|   -7.418814|    0.824183|    0.012046|
|         542|   -4.856661|   -7.418569|    0.824183|    0.012046|
|         543|   -4.863259|   -7.418141|    0.824183|    0.012047|
|         544|   -4.868846|   -7.417578|    0.824183|    0.012047|
|         545|   -4.873535|   -7.416935|    0.824182|    0.012048|
|         546|   -4.877678|   -7.416268|    0.824181|    0.012048|
|         547|   -4.881752|   -7.415636|    0.824180|    0.012048|
|         548|   -4.886228|   -7.415097|    0.824179|    0.012048|
|         549|   -4.891472|   -7.414707|    0.824177|    0.012048|
|         550|   -4.897679|   -7.414522|    0.824175|    0.012048|
|         551|   -4.904870|   -7.414596|    0.824173|    0.012048|
|         552|   -4.912915|   -7.414978|    0.824171|    0.012047|
|         553|   -4.921588|   -7.415723|    0.824168|    0.012047|
|         554|   -4.930625|   -7.416878|    0.824165|    0.012046|
|         555|   -4.939783|   -7.418474|    0.824162|    0.012046|
|         556|   -4.948885|   -7.420546|    0.824158|    0.012045|
|         557|   -4.957841|   -7.423129|    0.824154|    0.012044|
|         558|   -4.966643|   -7.426253|    0.824150|    0.012043|
|         559|   -4.975351|   -7.429945|    0.824146|    0.012042|
|         560|   -4.984055|   -7.434224|    0.824141|    0.012041|
|         561|   -4.992847|   -7.439107|    0.824137|    0.012040|
|         562|   -5.001796|   -7.444598|    0.824132|    0.012039|
|         563|   -5.010932|   -7.450695|    0.824127|    0.012037|
|         564|   -5.020251|   -7.457384|    0.824122|    0.012036|
|         565|   -5.029711|   -7.464633|    0.824117|    0.012034|
|         566|   -5.039250|   -7.472394|    0.824112|    0.012033|
|         567|   -5.048793|   -7.480599|    0.824106|    0.012031|
|         568|   -5.058265|   -7.489154|    0.824101|    0.012030|
|         569|   -5.067589|   -7.497943|    0.824096|    0.012028|
|         570|   -5.076694|   -7.506822|    0.824091|    0.012026|
|         571|   -5.085513|   -7.515619|    0.824087|    0.012025|
|         572|   -5.093980|   -7.524139|    0.824082|    0.012023|
|         573|   -5.102027|   -7.532165|    0.824078|    0.012021|
|         574|   -5.109589|   -7.539472|    0.824074|    0.012019|
|         575|   -5.116600|   -7.545832|    0.824070|    0.012018|
|         576|   -5.122997|   -7.551035|    0.824066|    0.012016|
|         577|   -5.128728|   -7.554906|    0.824063|    0.012014|
|         578|   -5.133752|   -7.557322|    0.824061|    0.012012|
|         579|   -5.138044|   -7.558224|    0.824058|    0.012011|
|         580|   -5.141599|   -7.557627|    0.824056|    0.012009|
|         581|   -5.144430|   -7.555617|    0.824055|    0.012007|
|         582|   -5.146568|   -7.552349|    0.824054|    0.012006|
|         583|   -5.148063|   -7.548028|    0.824054|    0.012004|
|         584|   -5.148978|   -7.542897|    0.824054|    0.012003|
|         585|   -5.149388|   -7.537213|    0.824054|    0.012001|
|         586|   -5.149377|   -7.531238|    0.824055|    0.012000|
|         587|   -5.149031|   -7.525219|    0.824056|    0.011998|
|         588|   -5.148439|   -7.519385|    0.824058|    0.011997|
|         589|   -5.147692|   -7.513937|    0.824060|    0.011996|
|         590|   -5.146873|   -7.509045|    0.824063|    0.011995|
|         591|   -5.146063|   -7.504853|    0.824066|    0.011993|
|         592|   -5.145337|   -7.501478|    0.824069|    0.011992|
|         593|   -5.144762|   -7.499008|    0.824073|    0.011991|
|         594|   -5.144396|   -7.497509|    0.824076|    0.011991|
|         595|   -5.144293|   -7.497024|    0.824081|    0.011990|
|         596|   -5.144495|   -7.497579|    0.824085|    0.011989|
|         597|   -5.145040|   -7.499177|    0.824090|    0.011988|
|         598|   -5.145957|   -7.501813|    0.824095|    0.011988|
|         599|   -5.147269|   -7.505463|    0.824100|    0.011987|
|         600|   -5.148993|   -7.510087|    0.824105|    0.011987|
|         601|   -5.151140|   -7.515632|    0.824110|    0.011979|
+-----------------------------------------------------------------------+
|Fixed CL Mode                           |Value                         |
+-----------------------------------------------------------------------+
|Current CL                              |0.82411                       |
|Target CL                               |0.824                         |
|Previous AOA                            |2.7815                        |
|Changed AoA by                          |-0.000523592                  |
+-----------------------------------------------------------------------+
+----------------------------------------------------------------+
|  Inner_Iter|    rms[Rho]|     rms[nu]|          CL|          CD|
+----------------------------------------------------------------+
|         602|   -3.474170|   -7.393655|    0.824115|    0.011979|
|         603|   -3.856915|   -7.453835|    0.824121|    0.011978|
|         604|   -4.096537|   -7.479686|    0.824126|    0.011978|
|         605|   -4.173428|   -7.498214|    0.824132|    0.011978|
|         606|   -4.226602|   -7.514210|    0.824137|    0.011978|
|         607|   -4.295603|   -7.528783|    0.824143|    0.011979|
|         608|   -4.380626|   -7.542258|    0.824148|    0.011979|
|         609|   -4.469344|   -7.554817|    0.824154|    0.011979|
|         610|   -4.546204|   -7.566509|    0.824159|    0.011979|
|         611|   -4.603458|   -7.577185|    0.824164|    0.011980|
|         612|   -4.642462|   -7.586675|    0.824170|    0.011980|
|         613|   -4.666369|   -7.594954|    0.824175|    0.011981|
|         614|   -4.678336|   -7.602134|    0.824179|    0.011982|
|         615|   -4.683747|   -7.608286|    0.824184|    0.011982|
|         616|   -4.689104|   -7.613357|    0.824189|    0.011983|
|         617|   -4.698987|   -7.617241|    0.824193|    0.011984|
|         618|   -4.714661|   -7.619882|    0.824197|    0.011985|
|         619|   -4.734576|   -7.621332|    0.824201|    0.011986|
|         620|   -4.755839|   -7.621739|    0.824205|    0.011987|
|         621|   -4.775994|   -7.621260|    0.824209|    0.011988|
|         622|   -4.794239|   -7.620009|    0.824212|    0.011989|
|         623|   -4.811332|   -7.618054|    0.824215|    0.011990|
|         624|   -4.828491|   -7.615440|    0.824218|    0.011992|
|         625|   -4.846364|   -7.612222|    0.824220|    0.011993|
|         626|   -4.864685|   -7.608485|    0.824222|    0.011994|
|         627|   -4.882536|   -7.604335|    0.824224|    0.011995|
|         628|   -4.898811|   -7.599884|    0.824226|    0.011997|
|         629|   -4.912595|   -7.595254|    0.824227|    0.011998|
|         630|   -4.923367|   -7.590557|    0.824229|    0.011999|
|         631|   -4.931090|   -7.585895|    0.824230|    0.012001|
|         632|   -4.936222|   -7.581348|    0.824230|    0.012002|
|         633|   -4.939626|   -7.576979|    0.824231|    0.012003|
|         634|   -4.942372|   -7.572828|    0.824231|    0.012005|
|         635|   -4.945480|   -7.568916|    0.824231|    0.012006|
|         636|   -4.949713|   -7.565249|    0.824230|    0.012007|
|         637|   -4.955463|   -7.561823|    0.824229|    0.012009|
|         638|   -4.962738|   -7.558629|    0.824229|    0.012010|
|         639|   -4.971190|   -7.555657|    0.824227|    0.012011|
|         640|   -4.980197|   -7.552900|    0.824226|    0.012012|
|         641|   -4.988979|   -7.550357|    0.824224|    0.012014|
|         642|   -4.996767|   -7.548032|    0.824223|    0.012015|
|         643|   -5.003000|   -7.545930|    0.824220|    0.012016|
|         644|   -5.007491|   -7.544063|    0.824218|    0.012017|
|         645|   -5.010475|   -7.542446|    0.824216|    0.012018|
|         646|   -5.012523|   -7.541092|    0.824213|    0.012019|
|         647|   -5.014356|   -7.540014|    0.824210|    0.012020|
|         648|   -5.016656|   -7.539219|    0.824207|    0.012021|
|         649|   -5.019925|   -7.538714|    0.824204|    0.012022|
|         650|   -5.024419|   -7.538496|    0.824201|    0.012023|
|         651|   -5.030157|   -7.538562|    0.824197|    0.012023|
|         652|   -5.036966|   -7.538904|    0.824193|    0.012024|
|         653|   -5.044556|   -7.539516|    0.824190|    0.012025|
|         654|   -5.052600|   -7.540387|    0.824186|    0.012025|
|         655|   -5.060809|   -7.541505|    0.824181|    0.012026|
|         656|   -5.068985|   -7.542843|    0.824177|    0.012026|
|         657|   -5.077046|   -7.544382|    0.824172|    0.012027|
|         658|   -5.085020|   -7.546105|    0.824168|    0.012027|
|         659|   -5.093018|   -7.547999|    0.824163|    0.012027|
|         660|   -5.101186|   -7.550056|    0.824158|    0.012027|
|         661|   -5.109672|   -7.552265|    0.824153|    0.012027|
|         662|   -5.118591|   -7.554623|    0.824148|    0.012027|
|         663|   -5.128014|   -7.557131|    0.824143|    0.012027|
|         664|   -5.137964|   -7.559794|    0.824137|    0.012027|
|         665|   -5.148426|   -7.562619|    0.824132|    0.012027|
|         666|   -5.159356|   -7.565613|    0.824127|    0.012027|
|         667|   -5.170699|   -7.568787|    0.824121|    0.012027|
|         668|   -5.182391|   -7.572152|    0.824116|    0.012026|
|         669|   -5.194374|   -7.575718|    0.824111|    0.012026|
|         670|   -5.206586|   -7.579491|    0.824105|    0.012026|
|         671|   -5.218969|   -7.583476|    0.824100|    0.012025|
|         672|   -5.231453|   -7.587665|    0.824095|    0.012025|
|         673|   -5.243960|   -7.592044|    0.824090|    0.012024|
|         674|   -5.256394|   -7.596586|    0.824085|    0.012023|
|         675|   -5.268644|   -7.601250|    0.824081|    0.012023|
|         676|   -5.280583|   -7.605980|    0.824076|    0.012022|
|         677|   -5.292072|   -7.610704|    0.824072|    0.012021|
|         678|   -5.302970|   -7.615336|    0.824068|    0.012020|
|         679|   -5.313134|   -7.619777|    0.824065|    0.012019|
|         680|   -5.322435|   -7.623920|    0.824061|    0.012019|
|         681|   -5.330763|   -7.627651|    0.824058|    0.012018|
|         682|   -5.338033|   -7.630860|    0.824056|    0.012017|
|         683|   -5.344192|   -7.633446|    0.824054|    0.012016|
|         684|   -5.349223|   -7.635325|    0.824052|    0.012015|
|         685|   -5.353145|   -7.636441|    0.824050|    0.012014|
|         686|   -5.356009|   -7.636765|    0.824049|    0.012013|
|         687|   -5.357899|   -7.636309|    0.824048|    0.012012|
|         688|   -5.358921|   -7.635119|    0.824047|    0.012011|
|         689|   -5.359200|   -7.633280|    0.824047|    0.012010|
|         690|   -5.358868|   -7.630904|    0.824047|    0.012009|
|         691|   -5.358064|   -7.628130|    0.824048|    0.012008|
|         692|   -5.356920|   -7.625113|    0.824048|    0.012007|
|         693|   -5.355563|   -7.622013|    0.824050|    0.012006|
|         694|   -5.354109|   -7.618994|    0.824051|    0.012005|
|         695|   -5.352661|   -7.616213|    0.824053|    0.012004|
|         696|   -5.351307|   -7.613813|    0.824055|    0.012003|
|         697|   -5.350122|   -7.611923|    0.824057|    0.012002|
|         698|   -5.349170|   -7.610653|    0.824059|    0.012001|
|         699|   -5.348498|   -7.610092|    0.824062|    0.012000|
|         700|   -5.348146|   -7.610308|    0.824065|    0.011999|
|         701|   -5.348142|   -7.611346|    0.824068|    0.011993|
+-----------------------------------------------------------------------+
|Fixed CL Mode                           |Value                         |
+-----------------------------------------------------------------------+
|Current CL                              |0.824068                      |
|Target CL                               |0.824                         |
|Previous AOA                            |2.78097                       |
|Changed AoA by                          |-0.000324344                  |
+-----------------------------------------------------------------------+
+----------------------------------------------------------------+
|  Inner_Iter|    rms[Rho]|     rms[nu]|          CL|          CD|
+----------------------------------------------------------------+
|         702|   -3.682160|   -7.528493|    0.824071|    0.011992|
|         703|   -4.064214|   -7.568686|    0.824075|    0.011992|
|         704|   -4.301237|   -7.584596|    0.824078|    0.011991|
|         705|   -4.376330|   -7.595871|    0.824082|    0.011990|
|         706|   -4.428701|   -7.605796|    0.824085|    0.011990|
|         707|   -4.497053|   -7.615132|    0.824089|    0.011989|
|         708|   -4.581434|   -7.624118|    0.824093|    0.011988|
|         709|   -4.669896|   -7.632861|    0.824097|    0.011988|
|         710|   -4.747532|   -7.641347|    0.824101|    0.011987|
|         711|   -4.806778|   -7.649426|    0.824105|    0.011987|
|         712|   -4.848458|   -7.656902|    0.824109|    0.011986|
|         713|   -4.874963|   -7.663636|    0.824113|    0.011986|
|         714|   -4.888844|   -7.669539|    0.824116|    0.011986|
|         715|   -4.895275|   -7.674511|    0.824120|    0.011986|
|         716|   -4.900933|   -7.678400|    0.824124|    0.011985|
|         717|   -4.910689|   -7.681052|    0.824127|    0.011985|
|         718|   -4.926033|   -7.682387|    0.824131|    0.011985|
|         719|   -4.945568|   -7.682428|    0.824134|    0.011985|
|         720|   -4.966523|   -7.681285|    0.824137|    0.011985|
|         721|   -4.986547|   -7.679103|    0.824140|    0.011985|
|         722|   -5.004902|   -7.676035|    0.824143|    0.011986|
|         723|   -5.022339|   -7.672223|    0.824145|    0.011986|
|         724|   -5.040008|   -7.667810|    0.824148|    0.011986|
|         725|   -5.058440|   -7.662941|    0.824150|    0.011986|
|         726|   -5.077229|   -7.657776|    0.824152|    0.011987|
|         727|   -5.095318|   -7.652467|    0.824154|    0.011987|
|         728|   -5.111502|   -7.647159|    0.824156|    0.011987|
|         729|   -5.124844|   -7.641979|    0.824158|    0.011988|
|         730|   -5.134892|   -7.637035|    0.824159|    0.011988|
|         731|   -5.141742|   -7.632413|    0.824160|    0.011989|
|         732|   -5.145998|   -7.628170|    0.824161|    0.011989|
|         733|   -5.148635|   -7.624340|    0.824162|    0.011990|
|         734|   -5.150772|   -7.620935|    0.824163|    0.011991|
|         735|   -5.153418|   -7.617947|    0.824163|    0.011991|
|         736|   -5.157280|   -7.615345|    0.824164|    0.011992|
|         737|   -5.162677|   -7.613090|    0.824164|    0.011993|
|         738|   -5.169530|   -7.611135|    0.824164|    0.011993|
|         739|   -5.177418|   -7.609425|    0.824164|    0.011994|
|         740|   -5.185658|   -7.607907|    0.824164|    0.011995|
|         741|   -5.193437|   -7.606530|    0.824163|    0.011996|
|         742|   -5.199989|   -7.605247|    0.824163|    0.011996|
|         743|   -5.204791|   -7.604016|    0.824162|    0.011997|
|         744|   -5.207714|   -7.602802|    0.824162|    0.011998|
|         745|   -5.209053|   -7.601580|    0.824161|    0.011999|
|         746|   -5.209417|   -7.600329|    0.824160|    0.012000|
|         747|   -5.209538|   -7.599035|    0.824159|    0.012000|
|         748|   -5.210083|   -7.597690|    0.824158|    0.012001|
|         749|   -5.211523|   -7.596286|    0.824156|    0.012002|
|         750|   -5.214086|   -7.594819|    0.824155|    0.012003|
|         751|   -5.217770|   -7.593294|    0.824154|    0.012004|
|         752|   -5.222395|   -7.591717|    0.824152|    0.012004|
|         753|   -5.227682|   -7.590096|    0.824150|    0.012005|
|         754|   -5.233331|   -7.588444|    0.824149|    0.012006|
|         755|   -5.239085|   -7.586767|    0.824147|    0.012007|
|         756|   -5.244779|   -7.585078|    0.824145|    0.012007|
|         757|   -5.250356|   -7.583384|    0.824143|    0.012008|
|         758|   -5.255853|   -7.581698|    0.824140|    0.012009|
|         759|   -5.261372|   -7.580033|    0.824138|    0.012010|
|         760|   -5.267045|   -7.578405|    0.824136|    0.012010|
|         761|   -5.272993|   -7.576834|    0.824133|    0.012011|
|         762|   -5.279308|   -7.575340|    0.824131|    0.012011|
|         763|   -5.286039|   -7.573947|    0.824128|    0.012012|
|         764|   -5.293196|   -7.572681|    0.824125|    0.012013|
|         765|   -5.300756|   -7.571571|    0.824122|    0.012013|
|         766|   -5.308677|   -7.570644|    0.824119|    0.012014|
|         767|   -5.316908|   -7.569932|    0.824116|    0.012014|
|         768|   -5.325396|   -7.569463|    0.824113|    0.012014|
|         769|   -5.334091|   -7.569262|    0.824110|    0.012015|
|         770|   -5.342947|   -7.569355|    0.824107|    0.012015|
|         771|   -5.351918|   -7.569759|    0.824104|    0.012015|
|         772|   -5.360958|   -7.570486|    0.824101|    0.012016|
|         773|   -5.370012|   -7.571540|    0.824098|    0.012016|
|         774|   -5.379017|   -7.572916|    0.824095|    0.012016|
|         775|   -5.387903|   -7.574598|    0.824092|    0.012016|
|         776|   -5.396590|   -7.576562|    0.824089|    0.012016|
|         777|   -5.404994|   -7.578769|    0.824086|    0.012016|
|         778|   -5.413031|   -7.581174|    0.824083|    0.012017|
|         779|   -5.420619|   -7.583718|    0.824081|    0.012017|
|         780|   -5.427682|   -7.586333|    0.824078|    0.012017|
|         781|   -5.434155|   -7.588945|    0.824076|    0.012017|
|         782|   -5.439989|   -7.591476|    0.824074|    0.012016|
|         783|   -5.445148|   -7.593843|    0.824072|    0.012016|
|         784|   -5.449616|   -7.595971|    0.824070|    0.012016|
|         785|   -5.453395|   -7.597788|    0.824069|    0.012016|
|         786|   -5.456504|   -7.599234|    0.824067|    0.012016|
|         787|   -5.458980|   -7.600266|    0.824066|    0.012016|
|         788|   -5.460871|   -7.600858|    0.824065|    0.012015|
|         789|   -5.462241|   -7.601004|    0.824064|    0.012015|
|         790|   -5.463159|   -7.600721|    0.824063|    0.012015|
|         791|   -5.463699|   -7.600045|    0.824063|    0.012014|
|         792|   -5.463939|   -7.599030|    0.824063|    0.012014|
|         793|   -5.463954|   -7.597747|    0.824063|    0.012013|
|         794|   -5.463817|   -7.596276|    0.824063|    0.012013|
|         795|   -5.463596|   -7.594707|    0.824063|    0.012013|
|         796|   -5.463352|   -7.593128|    0.824064|    0.012012|
|         797|   -5.463140|   -7.591630|    0.824064|    0.012012|
|         798|   -5.463008|   -7.590296|    0.824065|    0.012011|
|         799|   -5.462996|   -7.589200|    0.824066|    0.012011|
|         800|   -5.463138|   -7.588408|    0.824067|    0.012010|
|         801|   -5.463462|   -7.587972|    0.824069|    0.012005|
+-----------------------------------------------------------------------+
|Fixed CL Mode                           |Value                         |
+-----------------------------------------------------------------------+
|Current CL                              |0.824069                      |
|Target CL                               |0.824                         |
|Previous AOA                            |2.78065                       |
|Changed AoA by                          |-0.000336564                  |
+-----------------------------------------------------------------------+
+----------------------------------------------------------------+
|  Inner_Iter|    rms[Rho]|     rms[nu]|          CL|          CD|
+----------------------------------------------------------------+
|         802|   -3.666251|   -7.507306|    0.824070|    0.012004|
|         803|   -4.049717|   -7.544393|    0.824071|    0.012004|
|         804|   -4.290292|   -7.557216|    0.824073|    0.012003|
|         805|   -4.366812|   -7.565175|    0.824075|    0.012003|
|         806|   -4.419443|   -7.571554|    0.824076|    0.012002|
|         807|   -4.488199|   -7.577153|    0.824078|    0.012002|
|         808|   -4.573370|   -7.582264|    0.824080|    0.012001|
|         809|   -4.662739|   -7.587064|    0.824082|    0.012000|
|         810|   -4.740764|   -7.591643|    0.824084|    0.012000|
|         811|   -4.799451|   -7.595995|    0.824086|    0.011999|
|         812|   -4.839803|   -7.600094|    0.824087|    0.011999|
|         813|   -4.864687|   -7.603971|    0.824089|    0.011998|
|         814|   -4.877132|   -7.607695|    0.824091|    0.011998|
|         815|   -4.882628|   -7.611303|    0.824093|    0.011998|
|         816|   -4.887917|   -7.614766|    0.824095|    0.011997|
|         817|   -4.897770|   -7.618019|    0.824097|    0.011997|
|         818|   -4.913537|   -7.621011|    0.824099|    0.011996|
|         819|   -4.933672|   -7.623736|    0.824100|    0.011996|
|         820|   -4.955245|   -7.626214|    0.824102|    0.011996|
|         821|   -4.975769|   -7.628471|    0.824104|    0.011995|
|         822|   -4.994454|   -7.630517|    0.824105|    0.011995|
|         823|   -5.012110|   -7.632347|    0.824107|    0.011995|
|         824|   -5.030016|   -7.633945|    0.824108|    0.011994|
|         825|   -5.048850|   -7.635311|    0.824109|    0.011994|
|         826|   -5.068333|   -7.636460|    0.824111|    0.011994|
|         827|   -5.087487|   -7.637422|    0.824112|    0.011994|
|         828|   -5.105115|   -7.638241|    0.824113|    0.011993|
|         829|   -5.120208|   -7.638966|    0.824114|    0.011993|
|         830|   -5.132180|   -7.639648|    0.824115|    0.011993|
|         831|   -5.140976|   -7.640337|    0.824115|    0.011993|
|         832|   -5.147089|   -7.641070|    0.824116|    0.011993|
|         833|   -5.151466|   -7.641875|    0.824117|    0.011993|
|         834|   -5.155284|   -7.642770|    0.824117|    0.011993|
|         835|   -5.159668|   -7.643753|    0.824118|    0.011993|
|         836|   -5.165457|   -7.644814|    0.824118|    0.011993|
|         837|   -5.173089|   -7.645929|    0.824118|    0.011993|
|         838|   -5.182567|   -7.647068|    0.824118|    0.011993|
|         839|   -5.193487|   -7.648197|    0.824119|    0.011993|
|         840|   -5.205105|   -7.649280|    0.824119|    0.011993|
|         841|   -5.216454|   -7.650280|    0.824119|    0.011993|
|         842|   -5.226543|   -7.651167|    0.824118|    0.011993|
|         843|   -5.234602|   -7.651912|    0.824118|    0.011994|
|         844|   -5.240316|   -7.652492|    0.824118|    0.011994|
|         845|   -5.243914|   -7.652889|    0.824118|    0.011994|
|         846|   -5.246068|   -7.653093|    0.824117|    0.011994|
|         847|   -5.247666|   -7.653094|    0.824117|    0.011994|
|         848|   -5.249551|   -7.652886|    0.824116|    0.011995|
|         849|   -5.252345|   -7.652465|    0.824115|    0.011995|
|         850|   -5.256367|   -7.651831|    0.824115|    0.011995|
|         851|   -5.261642|   -7.650986|    0.824114|    0.011996|
|         852|   -5.267964|   -7.649933|    0.824113|    0.011996|
|         853|   -5.274982|   -7.648681|    0.824112|    0.011996|
|         854|   -5.282302|   -7.647249|    0.824111|    0.011997|
|         855|   -5.289582|   -7.645646|    0.824109|    0.011997|
|         856|   -5.296592|   -7.643891|    0.824108|    0.011997|
|         857|   -5.303250|   -7.642007|    0.824107|    0.011998|
|         858|   -5.309608|   -7.640019|    0.824105|    0.011998|
|         859|   -5.315815|   -7.637956|    0.824103|    0.011998|
|         860|   -5.322063|   -7.635856|    0.824102|    0.011999|
|         861|   -5.328542|   -7.633760|    0.824100|    0.011999|
|         862|   -5.335401|   -7.631711|    0.824098|    0.012000|
|         863|   -5.342738|   -7.629758|    0.824096|    0.012000|
|         864|   -5.350596|   -7.627949|    0.824093|    0.012000|
|         865|   -5.358977|   -7.626336|    0.824091|    0.012001|
|         866|   -5.367856|   -7.624969|    0.824089|    0.012001|
|         867|   -5.377198|   -7.623894|    0.824086|    0.012002|
|         868|   -5.386970|   -7.623156|    0.824084|    0.012002|
|         869|   -5.397144|   -7.622795|    0.824081|    0.012002|
|         870|   -5.407698|   -7.622846|    0.824079|    0.012003|
|         871|   -5.418616|   -7.623332|    0.824076|    0.012003|
|         872|   -5.429878|   -7.624270|    0.824074|    0.012003|
|         873|   -5.441457|   -7.625664|    0.824071|    0.012004|
|         874|   -5.453317|   -7.627507|    0.824069|    0.012004|
|         875|   -5.465403|   -7.629778|    0.824066|    0.012004|
|         876|   -5.477647|   -7.632444|    0.824064|    0.012005|
|         877|   -5.489966|   -7.635459|    0.824062|    0.012005|
|         878|   -5.502264|   -7.638764|    0.824060|    0.012005|
|         879|   -5.514434|   -7.642288|    0.824058|    0.012006|
|         880|   -5.526362|   -7.645949|    0.824056|    0.012006|
|         881|   -5.537931|   -7.649658|    0.824054|    0.012006|
|         882|   -5.549023|   -7.653321|    0.824053|    0.012006|
|         883|   -5.559522|   -7.656843|    0.824051|    0.012007|
|         884|   -5.569322|   -7.660132|    0.824050|    0.012007|
|         885|   -5.578329|   -7.663104|    0.824049|    0.012007|
|         886|   -5.586465|   -7.665692|    0.824048|    0.012007|
|         887|   -5.593674|   -7.667841|    0.824047|    0.012008|
|         888|   -5.599923|   -7.669523|    0.824046|    0.012008|
|         889|   -5.605205|   -7.670728|    0.824046|    0.012008|
|         890|   -5.609537|   -7.671473|    0.824046|    0.012008|
|         891|   -5.612958|   -7.671797|    0.824045|    0.012008|
|         892|   -5.615528|   -7.671759|    0.824045|    0.012008|
|         893|   -5.617320|   -7.671433|    0.824046|    0.012008|
|         894|   -5.618418|   -7.670907|    0.824046|    0.012009|
|         895|   -5.618913|   -7.670272|    0.824046|    0.012009|
|         896|   -5.618894|   -7.669625|    0.824047|    0.012009|
|         897|   -5.618450|   -7.669056|    0.824047|    0.012009|
|         898|   -5.617665|   -7.668652|    0.824048|    0.012009|
|         899|   -5.616618|   -7.668490|    0.824049|    0.012009|
|         900|   -5.615379|   -7.668632|    0.824050|    0.012009|
|         901|   -5.614010|   -7.669131|    0.824051|    0.012005|
+-----------------------------------------------------------------------+
|Fixed CL Mode                           |Value                         |
+-----------------------------------------------------------------------+
|Current CL                              |0.824051                      |
|Target CL                               |0.824                         |
|Previous AOA                            |2.78031                       |
[...]
|        5298|   -6.040556|   -7.974501|    0.824237|    0.012009|
|        5299|   -6.047284|   -7.978459|    0.824238|    0.012009|
|        5300|   -6.053609|   -7.982489|    0.824238|    0.012009|
|        5301|   -6.059494|   -7.986611|    0.824238|    0.012009|
|        5302|   -6.064913|   -7.990840|    0.824238|    0.012009|
|        5303|   -6.069851|   -7.995186|    0.824238|    0.012009|
|        5304|   -6.074309|   -7.999657|    0.824238|    0.012009|
|        5305|   -6.078295|   -8.004256|    0.824238|    0.012009|
|        5306|   -6.081831|   -8.008986|    0.824238|    0.012009|
|        5307|   -6.084949|   -8.013846|    0.824238|    0.012009|
|        5308|   -6.087690|   -8.018836|    0.824238|    0.012009|
|        5309|   -6.090102|   -8.023953|    0.824239|    0.012009|
|        5310|   -6.092239|   -8.029193|    0.824239|    0.012009|
|        5311|   -6.094157|   -8.034555|    0.824239|    0.012009|
|        5312|   -6.095914|   -8.040037|    0.824239|    0.012009|
|        5313|   -6.097568|   -8.045636|    0.824239|    0.012009|
|        5314|   -6.099175|   -8.051353|    0.824239|    0.012009|
|        5315|   -6.100788|   -8.057189|    0.824239|    0.012009|
|        5316|   -6.102455|   -8.063145|    0.824239|    0.012009|
|        5317|   -6.104219|   -8.069223|    0.824240|    0.012009|
|        5318|   -6.106120|   -8.075427|    0.824240|    0.012009|
|        5319|   -6.108188|   -8.081759|    0.824240|    0.012009|
|        5320|   -6.110449|   -8.088223|    0.824240|    0.012009|
|        5321|   -6.112921|   -8.094821|    0.824240|    0.012009|
|        5322|   -6.115616|   -8.101555|    0.824240|    0.012009|
|        5323|   -6.118540|   -8.108427|    0.824240|    0.012009|
|        5324|   -6.121691|   -8.115435|    0.824241|    0.012009|
|        5325|   -6.125060|   -8.122577|    0.824241|    0.012009|
|        5326|   -6.128633|   -8.129852|    0.824241|    0.012009|
|        5327|   -6.132391|   -8.137252|    0.824241|    0.012009|
|        5328|   -6.136307|   -8.144771|    0.824241|    0.012009|
|        5329|   -6.140350|   -8.152401|    0.824241|    0.012010|
|        5330|   -6.144486|   -8.160130|    0.824242|    0.012010|
|        5331|   -6.148676|   -8.167946|    0.824242|    0.012010|
|        5332|   -6.152879|   -8.175836|    0.824242|    0.012010|
|        5333|   -6.157052|   -8.183786|    0.824242|    0.012010|
|        5334|   -6.161154|   -8.191780|    0.824242|    0.012010|
|        5335|   -6.165142|   -8.199805|    0.824242|    0.012010|
|        5336|   -6.168978|   -8.207845|    0.824242|    0.012010|
|        5337|   -6.172627|   -8.215887|    0.824243|    0.012010|
|        5338|   -6.176061|   -8.223919|    0.824243|    0.012010|
|        5339|   -6.179256|   -8.231930|    0.824243|    0.012010|
|        5340|   -6.182197|   -8.239911|    0.824243|    0.012010|
|        5341|   -6.184876|   -8.247854|    0.824243|    0.012011|
|        5342|   -6.187294|   -8.255754|    0.824243|    0.012011|
|        5343|   -6.189456|   -8.263610|    0.824243|    0.012011|
|        5344|   -6.191384|   -8.271422|    0.824243|    0.012011|
|        5345|   -6.193101|   -8.279193|    0.824244|    0.012011|
|        5346|   -6.194640|   -8.286927|    0.824244|    0.012011|
|        5347|   -6.196036|   -8.294628|    0.824244|    0.012011|
|        5348|   -6.197328|   -8.302302|    0.824244|    0.012011|
|        5349|   -6.198560|   -8.309957|    0.824244|    0.012011|
|        5350|   -6.199775|   -8.317600|    0.824244|    0.012011|
|        5351|   -6.201018|   -8.325242|    0.824244|    0.012011|
|        5352|   -6.202331|   -8.332890|    0.824244|    0.012011|
|        5353|   -6.203756|   -8.340556|    0.824244|    0.012011|
|        5354|   -6.205331|   -8.348247|    0.824244|    0.012011|
|        5355|   -6.207091|   -8.355973|    0.824244|    0.012011|
|        5356|   -6.209068|   -8.363739|    0.824245|    0.012011|
|        5357|   -6.211290|   -8.371551|    0.824245|    0.012011|
|        5358|   -6.213779|   -8.379413|    0.824245|    0.012011|
|        5359|   -6.216554|   -8.387326|    0.824245|    0.012011|
|        5360|   -6.219628|   -8.395289|    0.824245|    0.012011|
|        5361|   -6.223011|   -8.403299|    0.824245|    0.012011|
|        5362|   -6.226706|   -8.411352|    0.824245|    0.012011|
|        5363|   -6.230712|   -8.419439|    0.824245|    0.012011|
|        5364|   -6.235023|   -8.427534|    0.824245|    0.012011|
|        5365|   -6.239628|   -8.435630|    0.824245|    0.012011|
|        5366|   -6.244510|   -8.443717|    0.824245|    0.012011|
|        5367|   -6.249650|   -8.451780|    0.824245|    0.012011|
|        5368|   -6.255020|   -8.459805|    0.824245|    0.012011|
|        5369|   -6.260590|   -8.467772|    0.824245|    0.012011|
|        5370|   -6.266327|   -8.475662|    0.824245|    0.012011|
|        5371|   -6.272190|   -8.483452|    0.824245|    0.012011|
|        5372|   -6.278138|   -8.491118|    0.824245|    0.012011|
|        5373|   -6.284126|   -8.498634|    0.824245|    0.012011|
|        5374|   -6.290106|   -8.505974|    0.824245|    0.012011|
|        5375|   -6.296029|   -8.513114|    0.824245|    0.012011|
|        5376|   -6.301847|   -8.520027|    0.824245|    0.012011|
|        5377|   -6.307510|   -8.526688|    0.824245|    0.012011|
|        5378|   -6.312971|   -8.533076|    0.824245|    0.012011|
|        5379|   -6.318187|   -8.539168|    0.824245|    0.012011|
|        5380|   -6.323118|   -8.544945|    0.824245|    0.012011|
|        5381|   -6.327730|   -8.550390|    0.824245|    0.012011|
|        5382|   -6.331993|   -8.555485|    0.824245|    0.012010|
|        5383|   -6.335888|   -8.560215|    0.824245|    0.012010|
|        5384|   -6.339399|   -8.564565|    0.824245|    0.012010|
|        5385|   -6.342519|   -8.568524|    0.824245|    0.012010|
|        5386|   -6.345250|   -8.572079|    0.824245|    0.012010|
|        5387|   -6.347599|   -8.575221|    0.824245|    0.012010|
|        5388|   -6.349578|   -8.577939|    0.824245|    0.012010|
|        5389|   -6.351207|   -8.580225|    0.824245|    0.012010|
|        5390|   -6.352508|   -8.582068|    0.824246|    0.012010|
|        5391|   -6.353506|   -8.583461|    0.824246|    0.012010|
|        5392|   -6.354230|   -8.584394|    0.824246|    0.012010|
|        5393|   -6.354706|   -8.584862|    0.824246|    0.012009|
|        5394|   -6.354963|   -8.584858|    0.824246|    0.012009|
|        5395|   -6.355029|   -8.584380|    0.824246|    0.012009|
|        5396|   -6.354928|   -8.583426|    0.824246|    0.012009|
|        5397|   -6.354684|   -8.581999|    0.824247|    0.012009|
|        5398|   -6.354319|   -8.580107|    0.824247|    0.012009|
|        5399|   -6.353850|   -8.577761|    0.824247|    0.012009|
|        5400|   -6.353293|   -8.574979|    0.824247|    0.012009|
|        5401|   -6.352663|   -8.571783|    0.824247|    0.012009|
|        5402|   -6.351969|   -8.568202|    0.824248|    0.012009|
|        5403|   -6.351222|   -8.564266|    0.824248|    0.012008|
|        5404|   -6.350428|   -8.560012|    0.824248|    0.012008|
|        5405|   -6.349593|   -8.555482|    0.824248|    0.012008|
|        5406|   -6.348722|   -8.550716|    0.824248|    0.012008|
|        5407|   -6.347817|   -8.545761|    0.824249|    0.012008|
|        5408|   -6.346883|   -8.540660|    0.824249|    0.012008|
|        5409|   -6.345921|   -8.535459|    0.824249|    0.012008|
|        5410|   -6.344934|   -8.530201|    0.824249|    0.012008|
|        5411|   -6.343925|   -8.524928|    0.824250|    0.012008|
|        5412|   -6.342896|   -8.519680|    0.824250|    0.012008|
|        5413|   -6.341850|   -8.514493|    0.824250|    0.012008|
|        5414|   -6.340791|   -8.509398|    0.824250|    0.012008|
|        5415|   -6.339722|   -8.504425|    0.824250|    0.012007|
|        5416|   -6.338649|   -8.499598|    0.824251|    0.012007|
|        5417|   -6.337575|   -8.494938|    0.824251|    0.012007|
|        5418|   -6.336508|   -8.490462|    0.824251|    0.012007|
|        5419|   -6.335453|   -8.486181|    0.824251|    0.012007|
|        5420|   -6.334417|   -8.482107|    0.824251|    0.012007|
|        5421|   -6.333409|   -8.478243|    0.824252|    0.012007|
|        5422|   -6.332437|   -8.474594|    0.824252|    0.012007|
|        5423|   -6.331510|   -8.471158|    0.824252|    0.012007|
|        5424|   -6.330638|   -8.467934|    0.824252|    0.012007|
|        5425|   -6.329833|   -8.464916|    0.824252|    0.012007|
|        5426|   -6.329105|   -8.462099|    0.824252|    0.012007|
|        5427|   -6.328468|   -8.459477|    0.824253|    0.012007|
|        5428|   -6.327933|   -8.457039|    0.824253|    0.012007|
|        5429|   -6.327514|   -8.454778|    0.824253|    0.012007|
|        5430|   -6.327225|   -8.452684|    0.824253|    0.012007|
|        5431|   -6.327080|   -8.450746|    0.824253|    0.012007|
|        5432|   -6.327094|   -8.448957|    0.824253|    0.012007|
|        5433|   -6.327280|   -8.447306|    0.824253|    0.012007|
|        5434|   -6.327652|   -8.445786|    0.824254|    0.012007|
|        5435|   -6.328226|   -8.444388|    0.824254|    0.012007|
|        5436|   -6.329013|   -8.443105|    0.824254|    0.012007|
|        5437|   -6.330026|   -8.441931|    0.824254|    0.012007|
|        5438|   -6.331278|   -8.440860|    0.824254|    0.012007|
|        5439|   -6.332777|   -8.439887|    0.824254|    0.012007|
|        5440|   -6.334533|   -8.439007|    0.824254|    0.012007|
|        5441|   -6.336554|   -8.438216|    0.824254|    0.012007|
|        5442|   -6.338844|   -8.437511|    0.824254|    0.012007|
|        5443|   -6.341406|   -8.436889|    0.824255|    0.012008|
|        5444|   -6.344241|   -8.436348|    0.824255|    0.012008|
|        5445|   -6.347347|   -8.435885|    0.824255|    0.012008|
|        5446|   -6.350720|   -8.435497|    0.824255|    0.012008|
|        5447|   -6.354352|   -8.435183|    0.824255|    0.012008|
|        5448|   -6.358233|   -8.434940|    0.824255|    0.012008|
|        5449|   -6.362347|   -8.434767|    0.824255|    0.012008|
|        5450|   -6.366678|   -8.434660|    0.824255|    0.012008|
|        5451|   -6.371205|   -8.434617|    0.824255|    0.012008|
|        5452|   -6.375904|   -8.434635|    0.824255|    0.012008|
|        5453|   -6.380746|   -8.434712|    0.824255|    0.012008|
|        5454|   -6.385699|   -8.434845|    0.824255|    0.012008|
|        5455|   -6.390730|   -8.435030|    0.824255|    0.012008|
|        5456|   -6.395801|   -8.435264|    0.824255|    0.012009|
|        5457|   -6.400871|   -8.435545|    0.824255|    0.012009|
|        5458|   -6.405898|   -8.435868|    0.824255|    0.012009|
|        5459|   -6.410839|   -8.436230|    0.824255|    0.012009|
|        5460|   -6.415650|   -8.436628|    0.824255|    0.012009|
|        5461|   -6.420286|   -8.437058|    0.824255|    0.012009|
|        5462|   -6.424705|   -8.437517|    0.824255|    0.012009|
|        5463|   -6.428865|   -8.438001|    0.824255|    0.012009|
|        5464|   -6.432729|   -8.438507|    0.824255|    0.012009|
|        5465|   -6.436264|   -8.439033|    0.824255|    0.012009|
|        5466|   -6.439441|   -8.439574|    0.824255|    0.012009|
|        5467|   -6.442238|   -8.440128|    0.824255|    0.012009|
|        5468|   -6.444640|   -8.440691|    0.824255|    0.012009|
|        5469|   -6.446637|   -8.441261|    0.824255|    0.012010|
|        5470|   -6.448228|   -8.441834|    0.824255|    0.012010|
|        5471|   -6.449418|   -8.442407|    0.824255|    0.012010|
|        5472|   -6.450221|   -8.442977|    0.824255|    0.012010|
|        5473|   -6.450655|   -8.443540|    0.824255|    0.012010|
|        5474|   -6.450745|   -8.444093|    0.824255|    0.012010|
|        5475|   -6.450519|   -8.444634|    0.824254|    0.012010|
|        5476|   -6.450012|   -8.445157|    0.824254|    0.012010|
|        5477|   -6.449259|   -8.445661|    0.824254|    0.012010|
|        5478|   -6.448298|   -8.446142|    0.824254|    0.012010|
|        5479|   -6.447167|   -8.446596|    0.824254|    0.012010|
|        5480|   -6.445907|   -8.447019|    0.824254|    0.012010|
|        5481|   -6.444556|   -8.447409|    0.824254|    0.012010|
|        5482|   -6.443150|   -8.447763|    0.824254|    0.012010|
|        5483|   -6.441726|   -8.448077|    0.824254|    0.012010|
|        5484|   -6.440316|   -8.448349|    0.824254|    0.012010|
|        5485|   -6.438953|   -8.448575|    0.824254|    0.012010|
|        5486|   -6.437665|   -8.448754|    0.824254|    0.012010|
|        5487|   -6.436478|   -8.448883|    0.824254|    0.012010|
|        5488|   -6.435414|   -8.448962|    0.824254|    0.012010|
|        5489|   -6.434495|   -8.448987|    0.824253|    0.012010|
|        5490|   -6.433738|   -8.448960|    0.824253|    0.012010|
|        5491|   -6.433159|   -8.448878|    0.824253|    0.012010|
|        5492|   -6.432770|   -8.448742|    0.824253|    0.012010|
|        5493|   -6.432582|   -8.448551|    0.824253|    0.012010|
|        5494|   -6.432603|   -8.448307|    0.824253|    0.012010|
|        5495|   -6.432840|   -8.448010|    0.824253|    0.012010|
|        5496|   -6.433298|   -8.447662|    0.824253|    0.012010|
|        5497|   -6.433978|   -8.447263|    0.824253|    0.012010|
|        5498|   -6.434883|   -8.446815|    0.824253|    0.012010|
|        5499|   -6.436013|   -8.446320|    0.824253|    0.011996|
+-----------------------------------------------------------------------+
|Fixed CL Mode (Finite Difference)       |Value                         |
+-----------------------------------------------------------------------+
|Delta CL / Delta AoA                    |0.252935                      |
|Delta CD / Delta CL                     |0.0191729                     |
|Delta CMz / Delta CL                    |0.0120798                     |
+-----------------------------------------------------------------------+
Writing Flow Meta-Data file: flow.meta

----------------------------- Solver Exit -------------------------------

Maximum number of iterations reached (ITER = 5500) before convergence.
+-----------------------------------------------------------------------+
|      Convergence Field     |     Value    |   Criterion  |  Converged |
+-----------------------------------------------------------------------+
|                    rms[Rho]|      -6.43601|         < -12|          No|
+-----------------------------------------------------------------------+
-------------------------------------------------------------------------

--------------------------- Finalizing Solver ---------------------------
Deleted CNumerics container.
Deleted CIntegration container.
Deleted CSolver container.
Deleted CIteration container.
Deleted CInterface container.
Deleted CGeometry container.
Deleted CFreeFormDefBox class.
Deleted CSurfaceMovement class.
Deleted CVolumetricMovement class.
Deleted CConfig container.
Deleted nInst container.
Deleted COutput class.
-------------------------------------------------------------------------

------------------------- Exit Success (SU2_CFD) ------------------------


-------------------------------------------------------------------------
|    ___ _   _ ___                                                      |
|   / __| | | |_  )   Release 8.0.0 "Harrier"                           |
|   \__ \ |_| |/ /                                                      |
|   |___/\___//___|   Suite (Solution Exporting Code)                   |
|                                                                       |
-------------------------------------------------------------------------
| SU2 Project Website: https://su2code.github.io                        |
|                                                                       |
| The SU2 Project is maintained by the SU2 Foundation                   |
| (http://su2foundation.org)                                            |
-------------------------------------------------------------------------
| Copyright 2012-2023, SU2 Contributors                                 |
|                                                                       |
| SU2 is free software; you can redistribute it and/or                  |
| modify it under the terms of the GNU Lesser General Public            |
| License as published by the Free Software Foundation; either          |
| version 2.1 of the License, or (at your option) any later version.    |
|                                                                       |
| SU2 is distributed in the hope that it will be useful,                |
| but WITHOUT ANY WARRANTY; without even the implied warranty of        |
| MERCHANTABILITY or FITNESS FOR A PARTICULAR PURPOSE. See the GNU      |
| Lesser General Public License for more details.                       |
|                                                                       |
| You should have received a copy of the GNU Lesser General Public      |
| License along with SU2. If not, see <http://www.gnu.org/licenses/>.   |
-------------------------------------------------------------------------

----------------- Physical Case Definition ( Zone 0 ) -------------------
Input mesh file name: mesh_RAE2822_turb_deform.su2

-------------------- Output Information ( Zone 0 ) ----------------------
The tabular file format is CSV (.csv).
Flow variables file name: flow.

------------- Config File Boundary Information ( Zone 0 ) ---------------
+-----------------------------------------------------------------------+
|                        Marker Type|                        Marker Name|
+-----------------------------------------------------------------------+
|                          Far-field|                           FARFIELD|
+-----------------------------------------------------------------------+
|                     Heat flux wall|                            AIRFOIL|
+-----------------------------------------------------------------------+
Two dimensional problem.
13937 grid points before partitioning.
22842 volume elements before partitioning.
2 surface markers.
192 boundary elements in index 0 (Marker = AIRFOIL).
40 boundary elements in index 1 (Marker = FARFIELD).
Executing the partitioning functions.
Building the graph adjacency structure.
Calling ParMETIS... graph partitioning complete (831 edge cuts).
Distributing ParMETIS coloring.
Rebalancing vertices.
Rebalancing volume element connectivity.
Rebalancing markers and surface elements.
14875 vertices including ghost points. 
23674 interior elements including halo cells. 
18780 triangles.
4894 quadrilaterals.
Establishing MPI communication patterns.
Identify vertices.
Storing a mapping from global to local point index.

------------------------- Solution Postprocessing -----------------------
Reading and storing the solution from restart_flow.
Volume output fields: COORDINATES, SOLUTION
  Info: Ignoring the following screen output fields:
  RMS_DENSITY, RMS_NU_TILDE, LIFT, DRAG
Screen output fields: INNER_ITER
  Info: Ignoring the following history output groups:
  RMS_RES, AERO_COEFF
History output group(s): ITER
Warning: No (valid) fields chosen for convergence monitoring. Convergence monitoring inactive.
Warning: No (valid) fields chosen for time convergence monitoring. Time convergence monitoring inactive.
|Paraview                           |flow.vtu                           |
|Paraview surface                   |surface_flow.vtu                   |
|CSV file                           |surface_flow.csv                   |

------------------------- Finalize Solver -------------------------
Deleted CGeometry container.
Deleted CSolver class.
Deleted CConfig container.
Deleted COutput class.

Completed in 0.020436 seconds on 6 cores.

------------------------- Exit Success (SU2_SOL) ------------------------

