
-------------------------------------------------------------------------
|    ___ _   _ ___                                                      |
|   / __| | | |_  )   Release 8.0.0 "Harrier"                           |
|   \__ \ |_| |/ /                                                      |
|   |___/\___//___|   Suite (Mesh Deformation Code)                     |
|                                                                       |
-------------------------------------------------------------------------
| SU2 Project Website: https://su2code.github.io                        |
|                                                                       |
| The SU2 Project is maintained by the SU2 Foundation                   |
| (http://su2foundation.org)                                            |
-------------------------------------------------------------------------
| Copyright 2012-2023, SU2 Contributors                                 |
|                                                                       |
| SU2 is free software; you can redistribute it and/or                  |
| modify it under the terms of the GNU Lesser General Public            |
| License as published by the Free Software Foundation; either          |
| version 2.1 of the License, or (at your option) any later version.    |
|                                                                       |
| SU2 is distributed in the hope that it will be useful,                |
| but WITHOUT ANY WARRANTY; without even the implied warranty of        |
| MERCHANTABILITY or FITNESS FOR A PARTICULAR PURPOSE. See the GNU      |
| Lesser General Public License for more details.                       |
|                                                                       |
| You should have received a copy of the GNU Lesser General Public      |
| License along with SU2. If not, see <http://www.gnu.org/licenses/>.   |
-------------------------------------------------------------------------

----------------- Physical Case Definition ( Zone 0 ) -------------------
Input mesh file name: mesh_RAE2822_turb.su2

---------------- Grid deformation parameters ( Zone 0 )  ----------------
Grid deformation using a linear elasticity method.
Design variables definition (markers <-> value <-> param):
Hicks Henne <-> AIRFOIL <-> -2.09717e-05 <-> ( 0, 0.05 )
Hicks Henne <-> AIRFOIL <-> -1.16702e-05 <-> ( 0, 0.1 )
Hicks Henne <-> AIRFOIL <-> -5.08151e-06 <-> ( 0, 0.15 )
Hicks Henne <-> AIRFOIL <-> -5.89641e-07 <-> ( 0, 0.2 )
Hicks Henne <-> AIRFOIL <-> 2.25001e-06 <-> ( 0, 0.25 )
Hicks Henne <-> AIRFOIL <-> 3.90312e-06 <-> ( 0, 0.3 )
Hicks Henne <-> AIRFOIL <-> 4.86067e-06 <-> ( 0, 0.35 )
Hicks Henne <-> AIRFOIL <-> 5.60984e-06 <-> ( 0, 0.4 )
Hicks Henne <-> AIRFOIL <-> 6.59191e-06 <-> ( 0, 0.45 )
Hicks Henne <-> AIRFOIL <-> 8.12318e-06 <-> ( 0, 0.5 )
Hicks Henne <-> AIRFOIL <-> 1.02671e-05 <-> ( 0, 0.55 )
Hicks Henne <-> AIRFOIL <-> 1.27e-05 <-> ( 0, 0.6 )
Hicks Henne <-> AIRFOIL <-> 1.46489e-05 <-> ( 0, 0.65 )
Hicks Henne <-> AIRFOIL <-> 1.48851e-05 <-> ( 0, 0.7 )
Hicks Henne <-> AIRFOIL <-> 1.20564e-05 <-> ( 0, 0.75 )
Hicks Henne <-> AIRFOIL <-> 5.60095e-06 <-> ( 0, 0.8 )
Hicks Henne <-> AIRFOIL <-> -3.1441e-06 <-> ( 0, 0.85 )
Hicks Henne <-> AIRFOIL <-> -1.00444e-05 <-> ( 0, 0.9 )
Hicks Henne <-> AIRFOIL <-> -2.43885e-05 <-> ( 0, 0.95 )
Hicks Henne <-> AIRFOIL <-> -9.56045e-06 <-> ( 1, 0.05 )
Hicks Henne <-> AIRFOIL <-> -1.73174e-05 <-> ( 1, 0.1 )
Hicks Henne <-> AIRFOIL <-> -1.71938e-05 <-> ( 1, 0.15 )
Hicks Henne <-> AIRFOIL <-> -1.20381e-05 <-> ( 1, 0.2 )
Hicks Henne <-> AIRFOIL <-> -7.42647e-06 <-> ( 1, 0.25 )
Hicks Henne <-> AIRFOIL <-> -6.42136e-06 <-> ( 1, 0.3 )
Hicks Henne <-> AIRFOIL <-> -8.75688e-06 <-> ( 1, 0.35 )
Hicks Henne <-> AIRFOIL <-> -1.14623e-05 <-> ( 1, 0.4 )
Hicks Henne <-> AIRFOIL <-> -1.05568e-05 <-> ( 1, 0.45 )
Hicks Henne <-> AIRFOIL <-> -3.58052e-06 <-> ( 1, 0.5 )
Hicks Henne <-> AIRFOIL <-> 7.96393e-06 <-> ( 1, 0.55 )
Hicks Henne <-> AIRFOIL <-> 1.7913e-05 <-> ( 1, 0.6 )
Hicks Henne <-> AIRFOIL <-> 1.83454e-05 <-> ( 1, 0.65 )
Hicks Henne <-> AIRFOIL <-> 6.75771e-06 <-> ( 1, 0.7 )
Hicks Henne <-> AIRFOIL <-> -7.51767e-06 <-> ( 1, 0.75 )
Hicks Henne <-> AIRFOIL <-> -8.35919e-06 <-> ( 1, 0.8 )
Hicks Henne <-> AIRFOIL <-> 4.92028e-06 <-> ( 1, 0.85 )
Hicks Henne <-> AIRFOIL <-> 9.86645e-06 <-> ( 1, 0.9 )
Hicks Henne <-> AIRFOIL <-> 1.39702e-05 <-> ( 1, 0.95 )

-------------------- Output Information ( Zone 0 ) ----------------------
Output mesh file name: mesh_RAE2822_turb_deform.su2. 
Cell stiffness scaled by distance to nearest solid surface.

------------- Config File Boundary Information ( Zone 0 ) ---------------
+-----------------------------------------------------------------------+
|                        Marker Type|                        Marker Name|
+-----------------------------------------------------------------------+
|                          Far-field|                           FARFIELD|
+-----------------------------------------------------------------------+
|                     Heat flux wall|                            AIRFOIL|
+-----------------------------------------------------------------------+
Two dimensional problem.
13937 grid points before partitioning.
22842 volume elements before partitioning.
2 surface markers.
192 boundary elements in index 0 (Marker = AIRFOIL).
40 boundary elements in index 1 (Marker = FARFIELD).
Executing the partitioning functions.
Building the graph adjacency structure.
Calling ParMETIS... graph partitioning complete (831 edge cuts).
Distributing ParMETIS coloring.
Rebalancing vertices.
Rebalancing volume element connectivity.
Rebalancing markers and surface elements.
14875 vertices including ghost points. 
23674 interior elements including halo cells. 
18780 triangles.
4894 quadrilaterals.
Establishing MPI communication patterns.

----------------------- Preprocessing computations ----------------------
Setting local point connectivity.
Checking the numerical grid orientation of the interior elements.
All volume elements are correctly orientend.
All surface elements are correctly orientend.
Identify edges and vertices.
Setting the bound control volume structure.
Area of the computational grid: 32209.9.
  Info: Ignoring the following volume output fields/groups:
  SOLUTION
Volume output fields: COORDINATES
  Info: Ignoring the following screen output fields:
  RMS_DENSITY, RMS_NU_TILDE, LIFT, DRAG
Screen output fields: INNER_ITER
  Info: Ignoring the following history output groups:
  RMS_RES, AERO_COEFF
History output group(s): ITER
Warning: No (valid) fields chosen for convergence monitoring. Convergence monitoring inactive.
Warning: No (valid) fields chosen for time convergence monitoring. Time convergence monitoring inactive.

--------------------- Surface grid deformation (ZONE 0) -----------------
Performing the deformation of the surface grid.

------------------- Volumetric grid deformation (ZONE 0) ----------------
Performing the deformation of the volumetric grid.

Completed in 0.161041 seconds on 6 cores.

----------------------- Write deformed grid files -----------------------
|SU2 mesh                           |mesh_RAE2822_turb_deform.su2       |
|Paraview                           |volume_deformed.vtu                |
|Paraview surface                   |surface_deformed.vtu               |
|CSV file                           |surface_deformed.csv               |
Adding any FFD information to the SU2 file.

------------------------- Finalize Solver -------------------------
Deleted CNumerics container.
Deleted CSolver container.
Deleted CGeometry container.
Deleted CSurfaceMovement class.
Deleted CVolumetricMovement class.
Deleted CConfig container.
Deleted COutput class.

------------------------- Exit Success (SU2_DEF) ------------------------

