
-------------------------------------------------------------------------
|    ___ _   _ ___                                                      |
|   / __| | | |_  )   Release 8.0.0 "Harrier"                           |
|   \__ \ |_| |/ /                                                      |
|   |___/\___//___|   Suite (Computational Fluid Dynamics Code)         |
|                                                                       |
-------------------------------------------------------------------------
| SU2 Project Website: https://su2code.github.io                        |
|                                                                       |
| The SU2 Project is maintained by the SU2 Foundation                   |
| (http://su2foundation.org)                                            |
-------------------------------------------------------------------------
| Copyright 2012-2023, SU2 Contributors                                 |
|                                                                       |
| SU2 is free software; you can redistribute it and/or                  |
| modify it under the terms of the GNU Lesser General Public            |
| License as published by the Free Software Foundation; either          |
| version 2.1 of the License, or (at your option) any later version.    |
|                                                                       |
| SU2 is distributed in the hope that it will be useful,                |
| but WITHOUT ANY WARRANTY; without even the implied warranty of        |
| MERCHANTABILITY or FITNESS FOR A PARTICULAR PURPOSE. See the GNU      |
| Lesser General Public License for more details.                       |
|                                                                       |
| You should have received a copy of the GNU Lesser General Public      |
| License along with SU2. If not, see <http://www.gnu.org/licenses/>.   |
-------------------------------------------------------------------------

Parsing config file for zone 0

----------------- Physical Case Definition ( Zone 0 ) -------------------
Compressible RANS equations.
Turbulence model: Menter's k-omega SST-2003m with no production modification.
Hybrid RANS/LES: No Hybrid RANS/LES
Mach number: 0.729.
Angle of attack (AoA): 2 deg, and angle of sideslip (AoS): 0 deg.
Reynolds number: 6.5e+06. Reference length 1.
Reading and writing binary SU2 native restart files.
Read flow solution from: restart_flow.dat.
Dimensional simulation.
The reference area is 1 m^2.
The semi-span will be computed using the max y(3D) value.
The reference length is 1 m.
Surface(s) where the force coefficients are evaluated and 
their reference origin for moment computation: 
   - Airfoil (0.25, 0, 0).
   - Flap (0.25, 0, 0).
   - Slat (0.25, 0, 0) m.
Surface(s) plotted in the output file: Airfoil, Flap, Slat.
Input mesh file name: Mesh.su2

--------------- Space Numerical Integration ( Zone 0 ) ------------------
Roe (with entropy fix = 0.001) solver for the flow inviscid terms.
Standard Roe without low-dissipation function.
Second order integration in space, with slope limiter.
Venkatakrishnan slope-limiting method, with constant: 0.03.
The reference element size is: 1. 
Scalar upwind solver for the turbulence model.
First order integration in space.
Average of gradients with correction (viscous flow terms).
Average of gradients with correction (viscous turbulence terms).
Gradient for upwind reconstruction: inverse-distance weighted Least-Squares.
Gradient for viscous and source terms: inverse-distance weighted Least-Squares.

--------------- Time Numerical Integration  ( Zone 0 ) ------------------
Local time stepping (steady state simulation).
Euler implicit method for the flow equations.
FGMRES is used for solving the linear system.
Using a ILU(0) preconditioning.
Convergence criteria of the linear solver: 1e-06.
Max number of linear iterations: 10.
CFL adaptation. Factor down: 0.5, factor up: 1.1,
                lower limit: 1, upper limit: 1000,
                acceptable linear residual: 0.001.
Courant-Friedrichs-Lewy number:        2
Euler implicit time integration for the turbulence model.

------------------ Convergence Criteria  ( Zone 0 ) ---------------------
Maximum number of solver subiterations: 500.
Begin convergence monitoring at iteration 10.
Residual minimum value: 1e-14.
Cauchy series min. value: 1e-06.
Number of Cauchy elements: 100.
Begin windowed time average at iteration 0.

-------------------- Output Information ( Zone 0 ) ----------------------
File writing frequency: 
+------------------------------------+
|                     File| Frequency|
+------------------------------------+
|                  RESTART|       500|
|                 PARAVIEW|       500|
|         SURFACE_PARAVIEW|       500|
+------------------------------------+
Writing the convergence history file every 1 inner iterations.
Writing the screen convergence history every 1 inner iterations.
The tabular file format is CSV (.csv).
Convergence history file name: historySecond.
Forces breakdown file name: forces_breakdown.dat.
Surface file name: surface_flow.
Volume file name: flow.
Restart file name: restart_flow.dat.

------------- Config File Boundary Information ( Zone 0 ) ---------------
+-----------------------------------------------------------------------+
|                        Marker Type|                        Marker Name|
+-----------------------------------------------------------------------+
|                          Far-field|                           Farfield|
+-----------------------------------------------------------------------+
|                     Heat flux wall|                            Airfoil|
|                                   |                               Flap|
|                                   |                               Slat|
+-----------------------------------------------------------------------+

-------------------- Output Preprocessing ( Zone 0 ) --------------------

WARNING: SURFACE_PRESSURE_DROP can only be computed for at least 2 surfaces (outlet, inlet, ...)

Screen output fields: INNER_ITER, WALL_TIME, RMS_DENSITY, LIFT, DRAG, MIN_CFL, MAX_CFL, AVG_CFL
  Info: Ignoring the following history output groups:
  RESIDUALS, CFL
History output group(s): INNER_ITER, LIFT, DRAG
Convergence field(s): LIFT
Warning: No (valid) fields chosen for time convergence monitoring. Time convergence monitoring inactive.
  Info: Ignoring the following volume output fields/groups:
  RESIDUALS
Volume output fields: SOLUTION, PRIMITIVE, GRADIENTS, HESSIANS, EIGENVALUES, COORDINATES

------------------- Geometry Preprocessing ( Zone 0 ) -------------------
Two dimensional problem.
135071 grid points before partitioning.
140500 volume elements before partitioning.
4 surface markers.
1001 boundary elements in index 0 (Marker = Airfoil).
158 boundary elements in index 1 (Marker = Farfield).
491 boundary elements in index 2 (Marker = Flap).
348 boundary elements in index 3 (Marker = Slat).
Executing the partitioning functions.
Building the graph adjacency structure.
Calling ParMETIS... graph partitioning complete (1164 edge cuts).
Distributing ParMETIS coloring.
Rebalancing vertices.
Rebalancing volume element connectivity.
Rebalancing markers and surface elements.
137347 vertices including ghost points. 
141665 interior elements including halo cells. 
12916 triangles.
128749 quadrilaterals.
Establishing MPI communication patterns.
Setting point connectivity.
Renumbering points (Reverse Cuthill McKee Ordering).
Recomputing point connectivity.
Setting element connectivity.
Checking the numerical grid orientation.
All volume elements are correctly orientend.
All surface elements are correctly orientend.
Identifying edges and vertices.
Setting the control volume structure.
Area of the computational grid: 31408.1.
Searching for the closest normal neighbors to the surfaces.
Storing a mapping from global to local point index.
Compute the surface curvature.
Max K: 27822.3. Mean K: 88.6279. Standard deviation K: 1195.61.
Checking for periodicity.
Computing mesh quality statistics for the dual control volumes.
+--------------------------------------------------------------+
|           Mesh Quality Metric|        Minimum|        Maximum|
+--------------------------------------------------------------+
|    Orthogonality Angle (deg.)|        54.9514|             90|
|     CV Face Area Aspect Ratio|        1.00186|        1281.34|
|           CV Sub-Volume Ratio|        1.00002|         23.373|
+--------------------------------------------------------------+
Finding max control volume width.
Communicating number of neighbors.
Wetted area = 2.56915 m.
Area projection in the x-plane = 0.364737 m, y-plane = 1.14808 m.
Max. coordinate in the x-direction = 1.06769 m, y-direction = 0.0602558 m.
Min. coordinate in the x-direction = -0.0559936 m, y-direction = -0.147724 m.
Computing wall distances.

-------------------- Solver Preprocessing ( Zone 0 ) --------------------
Viscous flow: Computing pressure using the ideal gas law
based on the free-stream temperature and a density computed
from the Reynolds number.
Force coefficients computed using free-stream values.

-- Models:
+------------------------------------------------------------------------------+
|          Viscosity Model|        Conductivity Model|              Fluid Model|
+------------------------------------------------------------------------------+
|               SUTHERLAND|          CONSTANT_PRANDTL|             STANDARD_AIR|
+------------------------------------------------------------------------------+
-- Fluid properties:
+------------------------------------------------------------------------------+
|                  Name|    Dim. value|    Ref. value|      Unit|Non-dim. value|
+------------------------------------------------------------------------------+
|        Ref. Viscosity|     1.716e-05|             1|   N.s/m^2|     1.716e-05|
|      Sutherland Temp.|        273.15|             1|         K|        273.15|
|     Sutherland Const.|         110.4|             1|         K|         110.4|
+------------------------------------------------------------------------------+
|        Prandtl (Lam.)|             -|             -|         -|          0.72|
|       Prandtl (Turb.)|             -|             -|         -|           0.9|
+------------------------------------------------------------------------------+
|          Gas Constant|       287.058|             1|  N.m/kg.K|       287.058|
|      Spec. Heat Ratio|             -|             -|         -|           1.4|
+------------------------------------------------------------------------------+
-- Initial and free-stream conditions:
+------------------------------------------------------------------------------+
|                  Name|    Dim. value|    Ref. value|      Unit|Non-dim. value|
+------------------------------------------------------------------------------+
|       Static Pressure|       38779.2|             1|        Pa|       38779.2|
|               Density|      0.468824|             1|    kg/m^3|      0.468824|
|           Temperature|        288.15|             1|         K|        288.15|
|          Total Energy|        237791|             1|   m^2/s^2|        237791|
|            Velocity-X|       247.925|             1|       m/s|       247.925|
|            Velocity-Y|       8.65775|             1|       m/s|       8.65775|
|    Velocity Magnitude|       248.077|             1|       m/s|       248.077|
+------------------------------------------------------------------------------+
|             Viscosity|    1.7893e-05|             1|   N.s/m^2|    1.7893e-05|
|          Conductivity|             -|             1|   W/m^2.K|             -|
|     Turb. Kin. Energy|       230.782|             1|   m^2/s^2|       230.782|
|     Spec. Dissipation|        604687|             1|       1/s|        604687|
+------------------------------------------------------------------------------+
|           Mach Number|             -|             -|         -|         0.729|
|       Reynolds Number|             -|             -|         -|       6.5e+06|
+------------------------------------------------------------------------------+
Initialize Jacobian structure (Navier-Stokes). MG level: 0.
Initialize Jacobian structure (SST model).

------------------- Numerics Preprocessing ( Zone 0 ) -------------------

----------------- Integration Preprocessing ( Zone 0 ) ------------------

------------------- Iteration Preprocessing ( Zone 0 ) ------------------
Euler/Navier-Stokes/RANS fluid iteration.

------------------------------ Begin Solver -----------------------------

Simulation Run using the Single-zone Driver
WARNING: SU2 was not compiled for an AVX-capable architecture. Performance could be better,
         see https://su2code.github.io/docs_v7/Build-SU2-Linux-MacOS/#compiler-optimizations
+-------------------------------------------------------------------------------------------------------+
|  Inner_Iter|   Time(sec)|    rms[Rho]|          CL|          CD|     Min CFL|     Max CFL|     Avg CFL|
+-------------------------------------------------------------------------------------------------------+
|           0|  2.4346e-01|   -3.185185|    1.765563|    0.244261|  2.2000e+00|  2.2000e+00|  2.2000e+00|
|           1|  2.4366e-01|   -3.186699|    1.765562|    0.244259|  2.4200e+00|  2.4200e+00|  2.4200e+00|
|           2|  3.5134e-01|   -3.190223|    1.765562|    0.244256|  2.6620e+00|  2.6620e+00|  2.6620e+00|
|           3|  3.2105e-01|   -3.188906|    1.765562|    0.244253|  2.9282e+00|  2.9282e+00|  2.9282e+00|
|           4|  3.0383e-01|   -3.188483|    1.765562|    0.244249|  3.2210e+00|  3.2210e+00|  3.2210e+00|
|           5|  2.9498e-01|   -3.186052|    1.765564|    0.244244|  3.5431e+00|  3.5431e+00|  3.5431e+00|
|           6|  3.2881e-01|   -3.189727|    1.765566|    0.244239|  3.8974e+00|  3.8974e+00|  3.8974e+00|
|           7|  3.2450e-01|   -3.200406|    1.765569|    0.244232|  4.2872e+00|  4.2872e+00|  4.2872e+00|
|           8|  3.1608e-01|   -3.218623|    1.765573|    0.244224|  4.7159e+00|  4.7159e+00|  4.7159e+00|
|           9|  3.0948e-01|   -3.241750|    1.765577|    0.244217|  5.1875e+00|  5.1875e+00|  5.1875e+00|
|          10|  3.0588e-01|   -3.273044|    1.765579|    0.244209|  5.7062e+00|  5.7062e+00|  5.7062e+00|
|          11|  3.2198e-01|   -3.305429|    1.765580|    0.244203|  6.2769e+00|  6.2769e+00|  6.2769e+00|
|          12|  3.5056e-01|   -3.327934|    1.765577|    0.244198|  6.9045e+00|  6.9045e+00|  6.9045e+00|
|          13|  3.4515e-01|   -3.355374|    1.765568|    0.244195|  7.5950e+00|  7.5950e+00|  7.5950e+00|
|          14|  3.4102e-01|   -3.392031|    1.765554|    0.244195|  8.3545e+00|  8.3545e+00|  8.3545e+00|
|          15|  3.3874e-01|   -3.430660|    1.765532|    0.244195|  9.1899e+00|  9.1899e+00|  9.1899e+00|
|          16|  3.5079e-01|   -3.470934|    1.765503|    0.244197|  1.0109e+01|  1.0109e+01|  1.0109e+01|
|          17|  3.5322e-01|   -3.507483|    1.765467|    0.244198|  1.1120e+01|  1.1120e+01|  1.1120e+01|
|          18|  3.5091e-01|   -3.538746|    1.765425|    0.244197|  1.2232e+01|  1.2232e+01|  1.2232e+01|
|          19|  3.4876e-01|   -3.587018|    1.765380|    0.244194|  1.3455e+01|  1.3455e+01|  1.3455e+01|
|          20|  3.6147e-01|   -3.621766|    1.765332|    0.244189|  1.4800e+01|  1.4800e+01|  1.4800e+01|
|          21|  3.5917e-01|   -3.645206|    1.765284|    0.244185|  1.6281e+01|  1.6281e+01|  1.6281e+01|
|          22|  3.5721e-01|   -3.675926|    1.765237|    0.244183|  1.7909e+01|  1.7909e+01|  1.7909e+01|
|          23|  3.5564e-01|   -3.705715|    1.765193|    0.244185|  1.9699e+01|  1.9699e+01|  1.9699e+01|
|          24|  3.6537e-01|   -3.728172|    1.765154|    0.244194|  2.1669e+01|  2.1669e+01|  2.1669e+01|
|          25|  3.6442e-01|   -3.782841|    1.765119|    0.244208|  2.3836e+01|  2.3836e+01|  2.3836e+01|
|          26|  3.6296e-01|   -3.807121|    1.765092|    0.244226|  2.6220e+01|  2.6220e+01|  2.6220e+01|
|          27|  3.6161e-01|   -3.805449|    1.765077|    0.244241|  2.8842e+01|  2.8842e+01|  2.8842e+01|
|          28|  3.6792e-01|   -3.809233|    1.765075|    0.244250|  3.1726e+01|  3.1726e+01|  3.1726e+01|
|          29|  3.6625e-01|   -3.810990|    1.765087|    0.244248|  3.4899e+01|  3.4899e+01|  3.4899e+01|
|          30|  3.6491e-01|   -3.780767|    1.765111|    0.244233|  3.8389e+01|  3.8389e+01|  3.8389e+01|
|          31|  3.7097e-01|   -3.760135|    1.765143|    0.244205|  4.2228e+01|  4.2228e+01|  4.2228e+01|
|          32|  3.7475e-01|   -3.757716|    1.765192|    0.244173|  4.6450e+01|  4.6450e+01|  4.6450e+01|
|          33|  3.7349e-01|   -3.824348|    1.765264|    0.244147|  5.1095e+01|  5.1095e+01|  5.1095e+01|
|          34|  3.7278e-01|   -3.815023|    1.765364|    0.244139|  5.6205e+01|  5.6205e+01|  5.6205e+01|
|          35|  3.7843e-01|   -3.772468|    1.765476|    0.244152|  5.6205e+01|  5.6205e+01|  5.6205e+01|
|          36|  3.7684e-01|   -3.783487|    1.765566|    0.244170|  5.6205e+01|  5.6205e+01|  5.6205e+01|
|          37|  3.7633e-01|   -3.817123|    1.765612|    0.244178|  5.6205e+01|  5.6205e+01|  5.6205e+01|
|          38|  3.8395e-01|   -3.768105|    1.765604|    0.244165|  5.6205e+01|  5.6205e+01|  5.6205e+01|
|          39|  3.8536e-01|   -3.752225|    1.765541|    0.244128|  5.6205e+01|  5.6205e+01|  5.6205e+01|
|          40|  3.8400e-01|   -3.729948|    1.765435|    0.244074|  5.6205e+01|  5.6205e+01|  5.6205e+01|
|          41|  3.8322e-01|   -3.759963|    1.765301|    0.244011|  5.6205e+01|  5.6205e+01|  5.6205e+01|
|          42|  3.8602e-01|   -3.804614|    1.765154|    0.243951|  2.8102e+01|  2.8102e+01|  2.8102e+01|
|          43|  3.8716e-01|   -3.836702|    1.765079|    0.243923|  3.0913e+01|  3.0913e+01|  3.0913e+01|
|          44|  3.8583e-01|   -3.817952|    1.764998|    0.243896|  3.4004e+01|  3.4004e+01|  3.4004e+01|
|          45|  3.9219e-01|   -3.748644|    1.764915|    0.243872|  3.7404e+01|  3.7404e+01|  3.7404e+01|
|          46|  3.9076e-01|   -3.823349|    1.764830|    0.243855|  4.1145e+01|  4.1145e+01|  4.1145e+01|
|          47|  3.8950e-01|   -3.883391|    1.764746|    0.243847|  4.5259e+01|  4.5259e+01|  4.5259e+01|
|          48|  3.8976e-01|   -3.778864|    1.764667|    0.243852|  4.9785e+01|  4.9785e+01|  4.9785e+01|
|          49|  3.9292e-01|   -3.792792|    1.764597|    0.243872|  5.4764e+01|  5.4764e+01|  5.4764e+01|
|          50|  3.9201e-01|   -3.859814|    1.764535|    0.243907|  5.4764e+01|  5.4764e+01|  5.4764e+01|
|          51|  3.9095e-01|   -3.797229|    1.764486|    0.243950|  2.7382e+01|  2.7382e+01|  2.7382e+01|
|          52|  3.9017e-01|   -3.795483|    1.764463|    0.243974|  3.0120e+01|  3.0120e+01|  3.0120e+01|
|          53|  3.8901e-01|   -3.915110|    1.764444|    0.244002|  3.3132e+01|  3.3132e+01|  3.3132e+01|
|          54|  3.9296e-01|   -3.849377|    1.764426|    0.244033|  3.6445e+01|  3.6445e+01|  3.6445e+01|
|          55|  3.9197e-01|   -3.915383|    1.764407|    0.244068|  4.0090e+01|  4.0090e+01|  4.0090e+01|
|          56|  3.9084e-01|   -3.881800|    1.764390|    0.244105|  4.4099e+01|  4.4099e+01|  4.4099e+01|
|          57|  3.8975e-01|   -3.828300|    1.764371|    0.244143|  4.8509e+01|  4.8509e+01|  4.8509e+01|
|          58|  3.8869e-01|   -3.773415|    1.764351|    0.244180|  5.3359e+01|  5.3359e+01|  5.3359e+01|
|          59|  3.8859e-01|   -3.698305|    1.764326|    0.244212|  5.8695e+01|  5.8695e+01|  5.8695e+01|
|          60|  3.9105e-01|   -3.625804|    1.764297|    0.244239|  5.8695e+01|  5.8695e+01|  5.8695e+01|
|          61|  3.9032e-01|   -3.620193|    1.764265|    0.244257|  6.4565e+01|  6.4565e+01|  6.4565e+01|
|          62|  3.8935e-01|   -3.627753|    1.764225|    0.244268|  3.2282e+01|  3.2282e+01|  3.2282e+01|
|          63|  3.8853e-01|   -3.677180|    1.764203|    0.244271|  3.5511e+01|  3.5511e+01|  3.5511e+01|
|          64|  3.9154e-01|   -3.711863|    1.764179|    0.244273|  3.9062e+01|  3.9062e+01|  3.9062e+01|
|          65|  3.9111e-01|   -3.699371|    1.764151|    0.244273|  4.2968e+01|  4.2968e+01|  4.2968e+01|
|          66|  3.9023e-01|   -3.710563|    1.764116|    0.244272|  4.7265e+01|  4.7265e+01|  4.7265e+01|
|          67|  3.9016e-01|   -3.714929|    1.764073|    0.244269|  5.1991e+01|  5.1991e+01|  5.1991e+01|
|          68|  3.9314e-01|   -3.700252|    1.764020|    0.244267|  5.7190e+01|  5.7190e+01|  5.7190e+01|
|          69|  3.9216e-01|   -3.672205|    1.763956|    0.244266|  5.7190e+01|  5.7190e+01|  5.7190e+01|
|          70|  3.9169e-01|   -3.688648|    1.763888|    0.244268|  5.7190e+01|  5.7190e+01|  5.7190e+01|
|          71|  3.9096e-01|   -3.693943|    1.763815|    0.244272|  5.7190e+01|  5.7190e+01|  5.7190e+01|
|          72|  3.9044e-01|   -3.680542|    1.763739|    0.244280|  5.7190e+01|  5.7190e+01|  5.7190e+01|
|          73|  3.9714e-01|   -3.674684|    1.763663|    0.244289|  5.7190e+01|  5.7190e+01|  5.7190e+01|
|          74|  3.9750e-01|   -3.664121|    1.763584|    0.244300|  2.8595e+01|  2.8595e+01|  2.8595e+01|
|          75|  3.9643e-01|   -3.709149|    1.763543|    0.244306|  3.1455e+01|  3.1455e+01|  3.1455e+01|
|          76|  3.9546e-01|   -3.740938|    1.763498|    0.244312|  3.4600e+01|  3.4600e+01|  3.4600e+01|
|          77|  3.9459e-01|   -3.708835|    1.763447|    0.244318|  3.8060e+01|  3.8060e+01|  3.8060e+01|
|          78|  3.9739e-01|   -3.749165|    1.763390|    0.244324|  4.1866e+01|  4.1866e+01|  4.1866e+01|
|          79|  3.9650e-01|   -3.761589|    1.763324|    0.244330|  4.6053e+01|  4.6053e+01|  4.6053e+01|
|          80|  3.9610e-01|   -3.728509|    1.763249|    0.244332|  5.0658e+01|  5.0658e+01|  5.0658e+01|
|          81|  3.9530e-01|   -3.719077|    1.763162|    0.244331|  5.5724e+01|  5.5724e+01|  5.5724e+01|
|          82|  3.9841e-01|   -3.732788|    1.763060|    0.244324|  2.7862e+01|  2.7862e+01|  2.7862e+01|
|          83|  3.9740e-01|   -3.715270|    1.763007|    0.244319|  3.0648e+01|  3.0648e+01|  3.0648e+01|
|          84|  3.9686e-01|   -3.659454|    1.762946|    0.244311|  3.3713e+01|  3.3713e+01|  3.3713e+01|
|          85|  3.9621e-01|   -3.694910|    1.762877|    0.244301|  3.7084e+01|  3.7084e+01|  3.7084e+01|
|          86|  3.9770e-01|   -3.732230|    1.762798|    0.244288|  4.0793e+01|  4.0793e+01|  4.0793e+01|
|          87|  3.9790e-01|   -3.720841|    1.762704|    0.244270|  4.4872e+01|  4.4872e+01|  4.4872e+01|
|          88|  3.9715e-01|   -3.702579|    1.762595|    0.244248|  4.9359e+01|  4.9359e+01|  4.9359e+01|
|          89|  3.9678e-01|   -3.714944|    1.762468|    0.244221|  5.4295e+01|  5.4295e+01|  5.4295e+01|
|          90|  3.9916e-01|   -3.718077|    1.762320|    0.244189|  2.7148e+01|  2.7148e+01|  2.7148e+01|
|          91|  3.9837e-01|   -3.726431|    1.762244|    0.244173|  2.9862e+01|  2.9862e+01|  2.9862e+01|
|          92|  3.9751e-01|   -3.752479|    1.762158|    0.244155|  3.2849e+01|  3.2849e+01|  3.2849e+01|
|          93|  3.9681e-01|   -3.765301|    1.762061|    0.244135|  3.6133e+01|  3.6133e+01|  3.6133e+01|
|          94|  3.9861e-01|   -3.758116|    1.761952|    0.244114|  3.9747e+01|  3.9747e+01|  3.9747e+01|
|          95|  3.9946e-01|   -3.755999|    1.761829|    0.244091|  4.3721e+01|  4.3721e+01|  4.3721e+01|
|          96|  3.9880e-01|   -3.740408|    1.761691|    0.244068|  4.8094e+01|  4.8094e+01|  4.8094e+01|
|          97|  3.9813e-01|   -3.705238|    1.761538|    0.244046|  4.8094e+01|  4.8094e+01|  4.8094e+01|
|          98|  3.9749e-01|   -3.705795|    1.761386|    0.244026|  4.8094e+01|  4.8094e+01|  4.8094e+01|
|          99|  4.0060e-01|   -3.680583|    1.761235|    0.244011|  4.8094e+01|  4.8094e+01|  4.8094e+01|
|         100|  3.9984e-01|   -3.677678|    1.761086|    0.243998|  4.8094e+01|  4.8094e+01|  4.8094e+01|
|         101|  3.9918e-01|   -3.660820|    1.760941|    0.243989|  4.8094e+01|  4.8094e+01|  4.8094e+01|
|         102|  3.9877e-01|   -3.651062|    1.760799|    0.243983|  5.2903e+01|  5.2903e+01|  5.2903e+01|
|         103|  4.0017e-01|   -3.634949|    1.760647|    0.243980|  2.6451e+01|  2.6451e+01|  2.6451e+01|
|         104|  4.0035e-01|   -3.608920|    1.760572|    0.243979|  2.9097e+01|  2.9097e+01|  2.9097e+01|
|         105|  3.9960e-01|   -3.617375|    1.760492|    0.243979|  3.2006e+01|  3.2006e+01|  3.2006e+01|
|         106|  3.9978e-01|   -3.617575|    1.760405|    0.243980|  3.5207e+01|  3.5207e+01|  3.5207e+01|
|         107|  4.0186e-01|   -3.604170|    1.760310|    0.243981|  3.8728e+01|  3.8728e+01|  3.8728e+01|
|         108|  4.0118e-01|   -3.598746|    1.760208|    0.243984|  4.2600e+01|  4.2600e+01|  4.2600e+01|
|         109|  4.0054e-01|   -3.594705|    1.760098|    0.243987|  4.6860e+01|  4.6860e+01|  4.6860e+01|
|         110|  3.9991e-01|   -3.587661|    1.759978|    0.243991|  5.1546e+01|  5.1546e+01|  5.1546e+01|
|         111|  4.0192e-01|   -3.559560|    1.759847|    0.243994|  5.6701e+01|  5.6701e+01|  5.6701e+01|
|         112|  4.0153e-01|   -3.546990|    1.759702|    0.243998|  5.6701e+01|  5.6701e+01|  5.6701e+01|
|         113|  4.0116e-01|   -3.551310|    1.759558|    0.243999|  5.6701e+01|  5.6701e+01|  5.6701e+01|
|         114|  4.0126e-01|   -3.558960|    1.759409|    0.243998|  2.8351e+01|  2.8351e+01|  2.8351e+01|
|         115|  4.0247e-01|   -3.541559|    1.759334|    0.243997|  3.1186e+01|  3.1186e+01|  3.1186e+01|
|         116|  4.0200e-01|   -3.579140|    1.759250|    0.243995|  3.4304e+01|  3.4304e+01|  3.4304e+01|
|         117|  4.0141e-01|   -3.608110|    1.759155|    0.243992|  3.7735e+01|  3.7735e+01|  3.7735e+01|
|         118|  4.0115e-01|   -3.626483|    1.759049|    0.243987|  4.1508e+01|  4.1508e+01|  4.1508e+01|
|         119|  4.0297e-01|   -3.636450|    1.758926|    0.243980|  4.5659e+01|  4.5659e+01|  4.5659e+01|
|         120|  4.0257e-01|   -3.612992|    1.758787|    0.243969|  5.0225e+01|  5.0225e+01|  5.0225e+01|
|         121|  4.0293e-01|   -3.612209|    1.758628|    0.243955|  5.5247e+01|  5.5247e+01|  5.5247e+01|
|         122|  4.0248e-01|   -3.612455|    1.758447|    0.243936|  2.7624e+01|  2.7624e+01|  2.7624e+01|
|         123|  4.0365e-01|   -3.607235|    1.758354|    0.243926|  1.3812e+01|  1.3812e+01|  1.3812e+01|
|         124|  4.0392e-01|   -3.647829|    1.758308|    0.243921|  6.9059e+00|  6.9059e+00|  6.9059e+00|
|         125|  4.0359e-01|   -3.754346|    1.758285|    0.243918|  3.4529e+00|  3.4529e+00|  3.4529e+00|
|         126|  4.0232e-01|   -3.890889|    1.758274|    0.243917|  3.7982e+00|  3.7982e+00|  3.7982e+00|
|         127|  4.0107e-01|   -4.150387|    1.758261|    0.243916|  4.1781e+00|  4.1781e+00|  4.1781e+00|
|         128|  4.0011e-01|   -4.198234|    1.758247|    0.243914|  4.5959e+00|  4.5959e+00|  4.5959e+00|
|         129|  4.0142e-01|   -4.242483|    1.758231|    0.243912|  5.0555e+00|  5.0555e+00|  5.0555e+00|
|         130|  4.0059e-01|   -4.179044|    1.758214|    0.243910|  5.5610e+00|  5.5610e+00|  5.5610e+00|
|         131|  3.9988e-01|   -4.241970|    1.758194|    0.243908|  6.1171e+00|  6.1171e+00|  6.1171e+00|
|         132|  3.9931e-01|   -4.240009|    1.758173|    0.243905|  6.7288e+00|  6.7288e+00|  6.7288e+00|
|         133|  3.9840e-01|   -4.175662|    1.758150|    0.243903|  7.4017e+00|  7.4017e+00|  7.4017e+00|
|         134|  4.0000e-01|   -4.209217|    1.758124|    0.243899|  8.1419e+00|  8.1419e+00|  8.1419e+00|
|         135|  3.9937e-01|   -4.269340|    1.758095|    0.243896|  8.9561e+00|  8.9561e+00|  8.9561e+00|
|         136|  3.9874e-01|   -4.210770|    1.758064|    0.243892|  9.8517e+00|  9.8517e+00|  9.8517e+00|
|         137|  3.9810e-01|   -4.277190|    1.758029|    0.243888|  1.0837e+01|  1.0837e+01|  1.0837e+01|
|         138|  3.9772e-01|   -4.171362|    1.757990|    0.243883|  1.1921e+01|  1.1921e+01|  1.1921e+01|
|         139|  3.9923e-01|   -4.055383|    1.757947|    0.243877|  1.3113e+01|  1.3113e+01|  1.3113e+01|
|         140|  3.9980e-01|   -4.252059|    1.757900|    0.243871|  1.4424e+01|  1.4424e+01|  1.4424e+01|
|         141|  3.9927e-01|   -4.251488|    1.757848|    0.243864|  1.5866e+01|  1.5866e+01|  1.5866e+01|
|         142|  3.9872e-01|   -4.199076|    1.757792|    0.243856|  1.7453e+01|  1.7453e+01|  1.7453e+01|
|         143|  3.9817e-01|   -4.219657|    1.757728|    0.243847|  1.9198e+01|  1.9198e+01|  1.9198e+01|
|         144|  3.9972e-01|   -4.153518|    1.757659|    0.243837|  2.1118e+01|  2.1118e+01|  2.1118e+01|
|         145|  3.9912e-01|   -4.012421|    1.757582|    0.243826|  2.3230e+01|  2.3230e+01|  2.3230e+01|
|         146|  3.9862e-01|   -4.106825|    1.757499|    0.243814|  2.5553e+01|  2.5553e+01|  2.5553e+01|
|         147|  3.9812e-01|   -4.083140|    1.757406|    0.243800|  2.8108e+01|  2.8108e+01|  2.8108e+01|
|         148|  3.9956e-01|   -4.140760|    1.757304|    0.243785|  3.0919e+01|  3.0919e+01|  3.0919e+01|
|         149|  3.9924e-01|   -4.096523|    1.757193|    0.243769|  3.4011e+01|  3.4011e+01|  3.4011e+01|
|         150|  3.9879e-01|   -3.962416|    1.757073|    0.243751|  3.7412e+01|  3.7412e+01|  3.7412e+01|
|         151|  3.9837e-01|   -4.021627|    1.756944|    0.243731|  4.1153e+01|  4.1153e+01|  4.1153e+01|
|         152|  3.9805e-01|   -3.992329|    1.756804|    0.243710|  4.5268e+01|  4.5268e+01|  4.5268e+01|
|         153|  3.9765e-01|   -3.991996|    1.756655|    0.243687|  2.2634e+01|  2.2634e+01|  2.2634e+01|
|         154|  3.9870e-01|   -3.937867|    1.756582|    0.243675|  1.1317e+01|  1.1317e+01|  1.1317e+01|
|         155|  3.9815e-01|   -3.939938|    1.756546|    0.243670|  5.6585e+00|  5.6585e+00|  5.6585e+00|
|         156|  3.9724e-01|   -4.042955|    1.756527|    0.243667|  6.2244e+00|  6.2244e+00|  6.2244e+00|
|         157|  3.9668e-01|   -4.164693|    1.756508|    0.243664|  6.8468e+00|  6.8468e+00|  6.8468e+00|
|         158|  3.9644e-01|   -4.154921|    1.756486|    0.243661|  7.5315e+00|  7.5315e+00|  7.5315e+00|
|         159|  3.9733e-01|   -4.202433|    1.756462|    0.243657|  8.2846e+00|  8.2846e+00|  8.2846e+00|
|         160|  3.9675e-01|   -4.190105|    1.756436|    0.243653|  9.1131e+00|  9.1131e+00|  9.1131e+00|
|         161|  3.9616e-01|   -4.107404|    1.756407|    0.243648|  1.0024e+01|  1.0024e+01|  1.0024e+01|
|         162|  3.9567e-01|   -4.230752|    1.756376|    0.243643|  1.1027e+01|  1.1027e+01|  1.1027e+01|
|         163|  3.9517e-01|   -4.209949|    1.756342|    0.243638|  1.2130e+01|  1.2130e+01|  1.2130e+01|
|         164|  3.9590e-01|   -4.137623|    1.756305|    0.243632|  1.3342e+01|  1.3342e+01|  1.3342e+01|
|         165|  3.9625e-01|   -4.179276|    1.756264|    0.243626|  1.4677e+01|  1.4677e+01|  1.4677e+01|
|         166|  3.9577e-01|   -4.100619|    1.756220|    0.243618|  1.6144e+01|  1.6144e+01|  1.6144e+01|
|         167|  3.9548e-01|   -4.031699|    1.756172|    0.243611|  1.7759e+01|  1.7759e+01|  1.7759e+01|
|         168|  3.9511e-01|   -4.043633|    1.756120|    0.243602|  1.9535e+01|  1.9535e+01|  1.9535e+01|
|         169|  3.9475e-01|   -4.010981|    1.756064|    0.243593|  2.1488e+01|  2.1488e+01|  2.1488e+01|
|         170|  3.9443e-01|   -3.972688|    1.756004|    0.243583|  2.3637e+01|  2.3637e+01|  2.3637e+01|
|         171|  3.9583e-01|   -3.940233|    1.755938|    0.243571|  2.6001e+01|  2.6001e+01|  2.6001e+01|
|         172|  3.9570e-01|   -3.885944|    1.755866|    0.243559|  2.8601e+01|  2.8601e+01|  2.8601e+01|
|         173|  3.9530e-01|   -3.909529|    1.755790|    0.243546|  3.1461e+01|  3.1461e+01|  3.1461e+01|
|         174|  3.9503e-01|   -3.899699|    1.755708|    0.243533|  3.4607e+01|  3.4607e+01|  3.4607e+01|
|         175|  3.9486e-01|   -3.981277|    1.755619|    0.243518|  3.8068e+01|  3.8068e+01|  3.8068e+01|
|         176|  3.9679e-01|   -3.978900|    1.755523|    0.243504|  4.1874e+01|  4.1874e+01|  4.1874e+01|
|         177|  3.9649e-01|   -3.894209|    1.755420|    0.243489|  4.6062e+01|  4.6062e+01|  4.6062e+01|
|         178|  3.9633e-01|   -3.903486|    1.755308|    0.243474|  2.3031e+01|  2.3031e+01|  2.3031e+01|
|         179|  3.9597e-01|   -3.900566|    1.755252|    0.243467|  2.5334e+01|  2.5334e+01|  2.5334e+01|
|         180|  3.9663e-01|   -3.905439|    1.755190|    0.243460|  2.7867e+01|  2.7867e+01|  2.7867e+01|
|         181|  3.9751e-01|   -3.906423|    1.755122|    0.243453|  3.0654e+01|  3.0654e+01|  3.0654e+01|
|         182|  3.9714e-01|   -3.845739|    1.755047|    0.243445|  3.3720e+01|  3.3720e+01|  3.3720e+01|
|         183|  3.9687e-01|   -3.799184|    1.754963|    0.243437|  3.7092e+01|  3.7092e+01|  3.7092e+01|
|         184|  3.9656e-01|   -3.796906|    1.754870|    0.243429|  4.0801e+01|  4.0801e+01|  4.0801e+01|
|         185|  3.9787e-01|   -3.745688|    1.754766|    0.243420|  4.4881e+01|  4.4881e+01|  4.4881e+01|
|         186|  3.9780e-01|   -3.702209|    1.754648|    0.243411|  4.9369e+01|  4.9369e+01|  4.9369e+01|
|         187|  3.9746e-01|   -3.655628|    1.754515|    0.243401|  4.9369e+01|  4.9369e+01|  4.9369e+01|
|         188|  3.9714e-01|   -3.626711|    1.754377|    0.243392|  2.4684e+01|  2.4684e+01|  2.4684e+01|
|         189|  3.9676e-01|   -3.604886|    1.754308|    0.243388|  1.2342e+01|  1.2342e+01|  1.2342e+01|
|         190|  3.9825e-01|   -3.645463|    1.754273|    0.243386|  6.1711e+00|  6.1711e+00|  6.1711e+00|
|         191|  3.9747e-01|   -3.714333|    1.754256|    0.243385|  3.0856e+00|  3.0856e+00|  3.0856e+00|
|         192|  3.9668e-01|   -3.877862|    1.754247|    0.243384|  3.3941e+00|  3.3941e+00|  3.3941e+00|
|         193|  3.9588e-01|   -4.108358|    1.754237|    0.243383|  3.7335e+00|  3.7335e+00|  3.7335e+00|
|         194|  3.9517e-01|   -4.206949|    1.754227|    0.243383|  4.1069e+00|  4.1069e+00|  4.1069e+00|
|         195|  3.9578e-01|   -4.252071|    1.754215|    0.243382|  4.5176e+00|  4.5176e+00|  4.5176e+00|
|         196|  3.9509e-01|   -4.272143|    1.754202|    0.243381|  4.9693e+00|  4.9693e+00|  4.9693e+00|
|         197|  3.9466e-01|   -4.279609|    1.754188|    0.243380|  5.4662e+00|  5.4662e+00|  5.4662e+00|
|         198|  3.9405e-01|   -4.288211|    1.754172|    0.243379|  6.0129e+00|  6.0129e+00|  6.0129e+00|
|         199|  3.9366e-01|   -4.287204|    1.754154|    0.243378|  6.6142e+00|  6.6142e+00|  6.6142e+00|
|         200|  3.9497e-01|   -4.302348|    1.754135|    0.243377|  7.2756e+00|  7.2756e+00|  7.2756e+00|
|         201|  3.9448e-01|   -4.310513|    1.754113|    0.243376|  8.0031e+00|  8.0031e+00|  8.0031e+00|
|         202|  3.9400e-01|   -4.305326|    1.754090|    0.243375|  8.8034e+00|  8.8034e+00|  8.8034e+00|
|         203|  3.9365e-01|   -4.315130|    1.754064|    0.243373|  9.6838e+00|  9.6838e+00|  9.6838e+00|
|         204|  3.9408e-01|   -4.216106|    1.754035|    0.243372|  1.0652e+01|  1.0652e+01|  1.0652e+01|
|         205|  3.9443e-01|   -4.184833|    1.754003|    0.243370|  1.1717e+01|  1.1717e+01|  1.1717e+01|
|         206|  3.9417e-01|   -4.237371|    1.753967|    0.243368|  1.2889e+01|  1.2889e+01|  1.2889e+01|
|         207|  3.9387e-01|   -4.155052|    1.753928|    0.243366|  1.4178e+01|  1.4178e+01|  1.4178e+01|
|         208|  3.9387e-01|   -4.041235|    1.753885|    0.243364|  1.5596e+01|  1.5596e+01|  1.5596e+01|
|         209|  3.9437e-01|   -4.166773|    1.753836|    0.243361|  1.7155e+01|  1.7155e+01|  1.7155e+01|
|         210|  3.9432e-01|   -4.127780|    1.753783|    0.243358|  1.8871e+01|  1.8871e+01|  1.8871e+01|
|         211|  3.9419e-01|   -4.132543|    1.753723|    0.243355|  2.0758e+01|  2.0758e+01|  2.0758e+01|
|         212|  3.9387e-01|   -4.088952|    1.753657|    0.243351|  2.2834e+01|  2.2834e+01|  2.2834e+01|
|         213|  3.9488e-01|   -3.981723|    1.753584|    0.243346|  2.5117e+01|  2.5117e+01|  2.5117e+01|
|         214|  3.9457e-01|   -4.048077|    1.753502|    0.243340|  2.7629e+01|  2.7629e+01|  2.7629e+01|
|         215|  3.9452e-01|   -4.027921|    1.753411|    0.243334|  3.0392e+01|  3.0392e+01|  3.0392e+01|
|         216|  3.9427e-01|   -4.027419|    1.753310|    0.243326|  3.3431e+01|  3.3431e+01|  3.3431e+01|
|         217|  3.9398e-01|   -3.976668|    1.753198|    0.243316|  3.6774e+01|  3.6774e+01|  3.6774e+01|
|         218|  3.9487e-01|   -3.920529|    1.753074|    0.243305|  4.0452e+01|  4.0452e+01|  4.0452e+01|
|         219|  3.9507e-01|   -3.930006|    1.752938|    0.243291|  4.4497e+01|  4.4497e+01|  4.4497e+01|
|         220|  3.9482e-01|   -3.910843|    1.752789|    0.243275|  4.4497e+01|  4.4497e+01|  4.4497e+01|
|         221|  3.9455e-01|   -3.883214|    1.752641|    0.243258|  4.4497e+01|  4.4497e+01|  4.4497e+01|
|         222|  3.9455e-01|   -3.814564|    1.752494|    0.243240|  2.2248e+01|  2.2248e+01|  2.2248e+01|
|         223|  3.9544e-01|   -3.848338|    1.752420|    0.243231|  2.4473e+01|  2.4473e+01|  2.4473e+01|
|         224|  3.9533e-01|   -3.909852|    1.752340|    0.243220|  2.6921e+01|  2.6921e+01|  2.6921e+01|
|         225|  3.9513e-01|   -3.919001|    1.752252|    0.243208|  2.9613e+01|  2.9613e+01|  2.9613e+01|
|         226|  3.9493e-01|   -3.888084|    1.752157|    0.243193|  1.4806e+01|  1.4806e+01|  1.4806e+01|
|         227|  3.9463e-01|   -3.940449|    1.752109|    0.243186|  7.4031e+00|  7.4031e+00|  7.4031e+00|
|         228|  3.9413e-01|   -3.996480|    1.752085|    0.243182|  3.7016e+00|  3.7016e+00|  3.7016e+00|
|         229|  3.9418e-01|   -4.092763|    1.752073|    0.243180|  1.8508e+00|  1.8508e+00|  1.8508e+00|
|         230|  3.9426e-01|   -4.167497|    1.752067|    0.243179|  1.0000e+00|  1.0000e+00|  1.0000e+00|
|         231|  3.9348e-01|   -4.185859|    1.752064|    0.243179|  1.0000e+00|  1.0000e+00|  1.0000e+00|
|         232|  3.9271e-01|   -4.207122|    1.752061|    0.243178|  1.0000e+00|  1.0000e+00|  1.0000e+00|
|         233|  3.9194e-01|   -4.119250|    1.752058|    0.243178|  1.0000e+00|  1.0000e+00|  1.0000e+00|
|         234|  3.9118e-01|   -4.143551|    1.752054|    0.243177|  1.0000e+00|  1.0000e+00|  1.0000e+00|
|         235|  3.9043e-01|   -4.206623|    1.752051|    0.243177|  1.0000e+00|  1.0000e+00|  1.0000e+00|
|         236|  3.9085e-01|   -4.236272|    1.752048|    0.243176|  1.1000e+00|  1.1000e+00|  1.1000e+00|
|         237|  3.9024e-01|   -4.244577|    1.752045|    0.243176|  1.2100e+00|  1.2100e+00|  1.2100e+00|
|         238|  3.8948e-01|   -4.248350|    1.752041|    0.243175|  1.3310e+00|  1.3310e+00|  1.3310e+00|
|         239|  3.8881e-01|   -4.251654|    1.752037|    0.243174|  1.4641e+00|  1.4641e+00|  1.4641e+00|
|         240|  3.8817e-01|   -4.255857|    1.752032|    0.243174|  1.6105e+00|  1.6105e+00|  1.6105e+00|
|         241|  3.8754e-01|   -4.183475|    1.752027|    0.243173|  1.0000e+00|  1.0000e+00|  1.0000e+00|
|         242|  3.8683e-01|   -4.244462|    1.752024|    0.243172|  1.1000e+00|  1.1000e+00|  1.1000e+00|
|         243|  3.8711e-01|   -4.247295|    1.752020|    0.243172|  1.2100e+00|  1.2100e+00|  1.2100e+00|
|         244|  3.8656e-01|   -4.259817|    1.752016|    0.243171|  1.3310e+00|  1.3310e+00|  1.3310e+00|
|         245|  3.8591e-01|   -4.265877|    1.752012|    0.243170|  1.4641e+00|  1.4641e+00|  1.4641e+00|
|         246|  3.8527e-01|   -4.281512|    1.752007|    0.243170|  1.6105e+00|  1.6105e+00|  1.6105e+00|
|         247|  3.8464e-01|   -4.281796|    1.752002|    0.243169|  1.7716e+00|  1.7716e+00|  1.7716e+00|
|         248|  3.8401e-01|   -4.261618|    1.751996|    0.243168|  1.9487e+00|  1.9487e+00|  1.9487e+00|
|         249|  3.8338e-01|   -4.240784|    1.751990|    0.243167|  2.1436e+00|  2.1436e+00|  2.1436e+00|
|         250|  3.8276e-01|   -4.290639|    1.751983|    0.243165|  2.3579e+00|  2.3579e+00|  2.3579e+00|
|         251|  3.8219e-01|   -4.307773|    1.751976|    0.243164|  2.5937e+00|  2.5937e+00|  2.5937e+00|
|         252|  3.8201e-01|   -4.236946|    1.751968|    0.243163|  2.8531e+00|  2.8531e+00|  2.8531e+00|
|         253|  3.8232e-01|   -4.296176|    1.751959|    0.243161|  3.1384e+00|  3.1384e+00|  3.1384e+00|
|         254|  3.8177e-01|   -4.307350|    1.751949|    0.243159|  3.4523e+00|  3.4523e+00|  3.4523e+00|
|         255|  3.8125e-01|   -4.272272|    1.751938|    0.243158|  3.7975e+00|  3.7975e+00|  3.7975e+00|
|         256|  3.8072e-01|   -4.242710|    1.751926|    0.243155|  4.1772e+00|  4.1772e+00|  4.1772e+00|
|         257|  3.8026e-01|   -4.175584|    1.751912|    0.243153|  4.5950e+00|  4.5950e+00|  4.5950e+00|
|         258|  3.7979e-01|   -4.321301|    1.751898|    0.243150|  5.0545e+00|  5.0545e+00|  5.0545e+00|
|         259|  3.8015e-01|   -4.309491|    1.751882|    0.243148|  5.5599e+00|  5.5599e+00|  5.5599e+00|
|         260|  3.8022e-01|   -4.220371|    1.751864|    0.243144|  6.1159e+00|  6.1159e+00|  6.1159e+00|
|         261|  3.7984e-01|   -4.297939|    1.751845|    0.243141|  6.7275e+00|  6.7275e+00|  6.7275e+00|
|         262|  3.7946e-01|   -4.247966|    1.751823|    0.243137|  3.3637e+00|  3.3637e+00|  3.3637e+00|
|         263|  3.7894e-01|   -4.131246|    1.751813|    0.243135|  1.6819e+00|  1.6819e+00|  1.6819e+00|
|         264|  3.7835e-01|   -4.280959|    1.751807|    0.243134|  1.8501e+00|  1.8501e+00|  1.8501e+00|
|         265|  3.7778e-01|   -4.336632|    1.751802|    0.243133|  2.0351e+00|  2.0351e+00|  2.0351e+00|
|         266|  3.7863e-01|   -4.342920|    1.751795|    0.243132|  2.2386e+00|  2.2386e+00|  2.2386e+00|
|         267|  3.7806e-01|   -4.349068|    1.751788|    0.243130|  2.4624e+00|  2.4624e+00|  2.4624e+00|
|         268|  3.7750e-01|   -4.256847|    1.751781|    0.243129|  2.7087e+00|  2.7087e+00|  2.7087e+00|
|         269|  3.7700e-01|   -4.324150|    1.751772|    0.243127|  2.9795e+00|  2.9795e+00|  2.9795e+00|
|         270|  3.7649e-01|   -4.345124|    1.751763|    0.243125|  3.2775e+00|  3.2775e+00|  3.2775e+00|
|         271|  3.7601e-01|   -4.315135|    1.751753|    0.243123|  3.6052e+00|  3.6052e+00|  3.6052e+00|
|         272|  3.7565e-01|   -4.143306|    1.751741|    0.243121|  3.9658e+00|  3.9658e+00|  3.9658e+00|
|         273|  3.7630e-01|   -4.182821|    1.751729|    0.243119|  4.3624e+00|  4.3624e+00|  4.3624e+00|
|         274|  3.7586e-01|   -4.345979|    1.751715|    0.243116|  4.7986e+00|  4.7986e+00|  4.7986e+00|
|         275|  3.7544e-01|   -4.318728|    1.751701|    0.243113|  5.2784e+00|  5.2784e+00|  5.2784e+00|
|         276|  3.7504e-01|   -4.273412|    1.751684|    0.243110|  5.8063e+00|  5.8063e+00|  5.8063e+00|
|         277|  3.7469e-01|   -4.303979|    1.751666|    0.243106|  6.3869e+00|  6.3869e+00|  6.3869e+00|
|         278|  3.7435e-01|   -4.306533|    1.751646|    0.243102|  7.0256e+00|  7.0256e+00|  7.0256e+00|
|         279|  3.7531e-01|   -4.289490|    1.751625|    0.243098|  7.7282e+00|  7.7282e+00|  7.7282e+00|
|         280|  3.7504e-01|   -4.223236|    1.751601|    0.243093|  8.5010e+00|  8.5010e+00|  8.5010e+00|
|         281|  3.7481e-01|   -4.283558|    1.751576|    0.243087|  9.3511e+00|  9.3511e+00|  9.3511e+00|
|         282|  3.7463e-01|   -4.184196|    1.751547|    0.243081|  1.0286e+01|  1.0286e+01|  1.0286e+01|
|         283|  3.7461e-01|   -4.236696|    1.751517|    0.243075|  1.1315e+01|  1.1315e+01|  1.1315e+01|
|         284|  3.7517e-01|   -4.165009|    1.751483|    0.243068|  1.2446e+01|  1.2446e+01|  1.2446e+01|
|         285|  3.7496e-01|   -4.039067|    1.751446|    0.243059|  1.3691e+01|  1.3691e+01|  1.3691e+01|
|         286|  3.7475e-01|   -4.181219|    1.751406|    0.243051|  1.5060e+01|  1.5060e+01|  1.5060e+01|
|         287|  3.7465e-01|   -4.136791|    1.751362|    0.243041|  1.6566e+01|  1.6566e+01|  1.6566e+01|
|         288|  3.7547e-01|   -4.144429|    1.751314|    0.243030|  1.8223e+01|  1.8223e+01|  1.8223e+01|
|         289|  3.7526e-01|   -4.079942|    1.751262|    0.243018|  2.0045e+01|  2.0045e+01|  2.0045e+01|
|         290|  3.7507e-01|   -3.981845|    1.751205|    0.243006|  2.2049e+01|  2.2049e+01|  2.2049e+01|
|         291|  3.7488e-01|   -4.051762|    1.751144|    0.242992|  2.4254e+01|  2.4254e+01|  2.4254e+01|
|         292|  3.7552e-01|   -4.020913|    1.751079|    0.242977|  1.2127e+01|  1.2127e+01|  1.2127e+01|
|         293|  3.7552e-01|   -4.024248|    1.751046|    0.242970|  6.0636e+00|  6.0636e+00|  6.0636e+00|
|         294|  3.7516e-01|   -4.058102|    1.751030|    0.242966|  3.0318e+00|  3.0318e+00|  3.0318e+00|
|         295|  3.7470e-01|   -4.030270|    1.751022|    0.242964|  1.5159e+00|  1.5159e+00|  1.5159e+00|
|         296|  3.7414e-01|   -4.188891|    1.751018|    0.242963|  1.0000e+00|  1.0000e+00|  1.0000e+00|
|         297|  3.7371e-01|   -4.208490|    1.751015|    0.242963|  1.0000e+00|  1.0000e+00|  1.0000e+00|
|         298|  3.7395e-01|   -4.222169|    1.751012|    0.242962|  1.0000e+00|  1.0000e+00|  1.0000e+00|
|         299|  3.7338e-01|   -4.232951|    1.751010|    0.242961|  1.0000e+00|  1.0000e+00|  1.0000e+00|
|         300|  3.7283e-01|   -4.242003|    1.751007|    0.242961|  1.0000e+00|  1.0000e+00|  1.0000e+00|
|         301|  3.7228e-01|   -4.230541|    1.751004|    0.242960|  1.0000e+00|  1.0000e+00|  1.0000e+00|
|         302|  3.7173e-01|   -4.210146|    1.751002|    0.242960|  1.0000e+00|  1.0000e+00|  1.0000e+00|
|         303|  3.7152e-01|   -4.226595|    1.750999|    0.242959|  1.0000e+00|  1.0000e+00|  1.0000e+00|
|         304|  3.7166e-01|   -4.237996|    1.750996|    0.242959|  1.0000e+00|  1.0000e+00|  1.0000e+00|
|         305|  3.7111e-01|   -4.252864|    1.750994|    0.242958|  1.1000e+00|  1.1000e+00|  1.1000e+00|
|         306|  3.7059e-01|   -4.261871|    1.750991|    0.242957|  1.2100e+00|  1.2100e+00|  1.2100e+00|
|         307|  3.7007e-01|   -4.268035|    1.750988|    0.242957|  1.3310e+00|  1.3310e+00|  1.3310e+00|
|         308|  3.6956e-01|   -4.274138|    1.750984|    0.242956|  1.4641e+00|  1.4641e+00|  1.4641e+00|
|         309|  3.6910e-01|   -4.276238|    1.750980|    0.242955|  1.6105e+00|  1.6105e+00|  1.6105e+00|
|         310|  3.6940e-01|   -4.196637|    1.750976|    0.242954|  1.7716e+00|  1.7716e+00|  1.7716e+00|
|         311|  3.6948e-01|   -4.242412|    1.750971|    0.242953|  1.9487e+00|  1.9487e+00|  1.9487e+00|
|         312|  3.6901e-01|   -4.279551|    1.750966|    0.242952|  2.1436e+00|  2.1436e+00|  2.1436e+00|
|         313|  3.6856e-01|   -4.288015|    1.750961|    0.242950|  2.3579e+00|  2.3579e+00|  2.3579e+00|
|         314|  3.6811e-01|   -4.221074|    1.750955|    0.242949|  2.5937e+00|  2.5937e+00|  2.5937e+00|
|         315|  3.6770e-01|   -4.279967|    1.750948|    0.242947|  2.8531e+00|  2.8531e+00|  2.8531e+00|
|         316|  3.6812e-01|   -4.292918|    1.750940|    0.242946|  3.1384e+00|  3.1384e+00|  3.1384e+00|
|         317|  3.6776e-01|   -4.274226|    1.750932|    0.242944|  3.4523e+00|  3.4523e+00|  3.4523e+00|
|         318|  3.6737e-01|   -4.278857|    1.750923|    0.242942|  3.7975e+00|  3.7975e+00|  3.7975e+00|
|         319|  3.6699e-01|   -4.164598|    1.750914|    0.242940|  4.1772e+00|  4.1772e+00|  4.1772e+00|
|         320|  3.6671e-01|   -4.275043|    1.750903|    0.242937|  4.5950e+00|  4.5950e+00|  4.5950e+00|
|         321|  3.6727e-01|   -4.279758|    1.750891|    0.242935|  5.0545e+00|  5.0545e+00|  5.0545e+00|
|         322|  3.6692e-01|   -4.193219|    1.750878|    0.242932|  5.5599e+00|  5.5599e+00|  5.5599e+00|
|         323|  3.6663e-01|   -4.278849|    1.750864|    0.242928|  6.1159e+00|  6.1159e+00|  6.1159e+00|
|         324|  3.6634e-01|   -4.243453|    1.750849|    0.242925|  6.7275e+00|  6.7275e+00|  6.7275e+00|
|         325|  3.6614e-01|   -4.121100|    1.750832|    0.242921|  7.4002e+00|  7.4002e+00|  7.4002e+00|
|         326|  3.6672e-01|   -4.221692|    1.750814|    0.242917|  8.1403e+00|  8.1403e+00|  8.1403e+00|
|         327|  3.6649e-01|   -4.251279|    1.750794|    0.242912|  8.9543e+00|  8.9543e+00|  8.9543e+00|
|         328|  3.6631e-01|   -4.190274|    1.750772|    0.242907|  9.8497e+00|  9.8497e+00|  9.8497e+00|
|         329|  3.6633e-01|   -4.240843|    1.750748|    0.242902|  1.0835e+01|  1.0835e+01|  1.0835e+01|
|         330|  3.6689e-01|   -4.154108|    1.750722|    0.242896|  5.4174e+00|  5.4174e+00|  5.4174e+00|
|         331|  3.6656e-01|   -4.047067|    1.750709|    0.242893|  2.7087e+00|  2.7087e+00|  2.7087e+00|
|         332|  3.6618e-01|   -4.255132|    1.750703|    0.242892|  1.3543e+00|  1.3543e+00|  1.3543e+00|
|         333|  3.6570e-01|   -4.261569|    1.750700|    0.242891|  1.4898e+00|  1.4898e+00|  1.4898e+00|
|         334|  3.6527e-01|   -4.278930|    1.750696|    0.242890|  1.6387e+00|  1.6387e+00|  1.6387e+00|
|         335|  3.6538e-01|   -4.301020|    1.750692|    0.242889|  1.8026e+00|  1.8026e+00|  1.8026e+00|
|         336|  3.6548e-01|   -4.211783|    1.750688|    0.242888|  1.0000e+00|  1.0000e+00|  1.0000e+00|
|         337|  3.6500e-01|   -4.246898|    1.750686|    0.242888|  1.0000e+00|  1.0000e+00|  1.0000e+00|
|         338|  3.6453e-01|   -4.290941|    1.750683|    0.242887|  1.0000e+00|  1.0000e+00|  1.0000e+00|
|         339|  3.6407e-01|   -4.305121|    1.750681|    0.242887|  1.0000e+00|  1.0000e+00|  1.0000e+00|
|         340|  3.6361e-01|   -4.320901|    1.750679|    0.242886|  1.0000e+00|  1.0000e+00|  1.0000e+00|
|         341|  3.6388e-01|   -4.332697|    1.750676|    0.242886|  1.1000e+00|  1.1000e+00|  1.1000e+00|
|         342|  3.6358e-01|   -4.339618|    1.750674|    0.242885|  1.2100e+00|  1.2100e+00|  1.2100e+00|
|         343|  3.6314e-01|   -4.345184|    1.750671|    0.242884|  1.3310e+00|  1.3310e+00|  1.3310e+00|
|         344|  3.6270e-01|   -4.350047|    1.750668|    0.242884|  1.4641e+00|  1.4641e+00|  1.4641e+00|
|         345|  3.6230e-01|   -4.346379|    1.750664|    0.242883|  1.6105e+00|  1.6105e+00|  1.6105e+00|
|         346|  3.6190e-01|   -4.266850|    1.750661|    0.242882|  1.0000e+00|  1.0000e+00|  1.0000e+00|
|         347|  3.6147e-01|   -4.316883|    1.750658|    0.242882|  1.0000e+00|  1.0000e+00|  1.0000e+00|
|         348|  3.6151e-01|   -4.344027|    1.750656|    0.242881|  1.0000e+00|  1.0000e+00|  1.0000e+00|
|         349|  3.6151e-01|   -4.355816|    1.750654|    0.242880|  1.1000e+00|  1.1000e+00|  1.1000e+00|
|         350|  3.6108e-01|   -4.360696|    1.750651|    0.242880|  1.2100e+00|  1.2100e+00|  1.2100e+00|
|         351|  3.6065e-01|   -4.363590|    1.750648|    0.242879|  1.0000e+00|  1.0000e+00|  1.0000e+00|
|         352|  3.6022e-01|   -4.262978|    1.750646|    0.242879|  1.0000e+00|  1.0000e+00|  1.0000e+00|
|         353|  3.5980e-01|   -4.325955|    1.750644|    0.242878|  1.0000e+00|  1.0000e+00|  1.0000e+00|
|         354|  3.5938e-01|   -4.349994|    1.750641|    0.242878|  1.0000e+00|  1.0000e+00|  1.0000e+00|
|         355|  3.5897e-01|   -4.359198|    1.750639|    0.242877|  1.1000e+00|  1.1000e+00|  1.1000e+00|
|         356|  3.5941e-01|   -4.360393|    1.750636|    0.242877|  1.2100e+00|  1.2100e+00|  1.2100e+00|
|         357|  3.5897e-01|   -4.359558|    1.750634|    0.242876|  1.3310e+00|  1.3310e+00|  1.3310e+00|
|         358|  3.5856e-01|   -4.366460|    1.750631|    0.242875|  1.4641e+00|  1.4641e+00|  1.4641e+00|
|         359|  3.5819e-01|   -4.354173|    1.750627|    0.242874|  1.6105e+00|  1.6105e+00|  1.6105e+00|
|         360|  3.5782e-01|   -4.243307|    1.750624|    0.242874|  1.0000e+00|  1.0000e+00|  1.0000e+00|
|         361|  3.5741e-01|   -4.308884|    1.750621|    0.242873|  1.0000e+00|  1.0000e+00|  1.0000e+00|
|         362|  3.5752e-01|   -4.348027|    1.750619|    0.242873|  1.1000e+00|  1.1000e+00|  1.1000e+00|
|         363|  3.5751e-01|   -4.359648|    1.750616|    0.242872|  1.2100e+00|  1.2100e+00|  1.2100e+00|
|         364|  3.5710e-01|   -4.360947|    1.750614|    0.242871|  1.3310e+00|  1.3310e+00|  1.3310e+00|
|         365|  3.5670e-01|   -4.360815|    1.750611|    0.242871|  1.4641e+00|  1.4641e+00|  1.4641e+00|
|         366|  3.5631e-01|   -4.299964|    1.750607|    0.242870|  1.0000e+00|  1.0000e+00|  1.0000e+00|
|         367|  3.5592e-01|   -4.312996|    1.750605|    0.242869|  1.0000e+00|  1.0000e+00|  1.0000e+00|
|         368|  3.5594e-01|   -4.339010|    1.750603|    0.242869|  1.1000e+00|  1.1000e+00|  1.1000e+00|
|         369|  3.5589e-01|   -4.349021|    1.750600|    0.242868|  1.0000e+00|  1.0000e+00|  1.0000e+00|
|         370|  3.5550e-01|   -4.352313|    1.750598|    0.242868|  1.0000e+00|  1.0000e+00|  1.0000e+00|
|         371|  3.5511e-01|   -4.352922|    1.750596|    0.242867|  1.1000e+00|  1.1000e+00|  1.1000e+00|
|         372|  3.5473e-01|   -4.361179|    1.750593|    0.242867|  1.2100e+00|  1.2100e+00|  1.2100e+00|
|         373|  3.5434e-01|   -4.357426|    1.750590|    0.242866|  1.3310e+00|  1.3310e+00|  1.3310e+00|
|         374|  3.5396e-01|   -4.334893|    1.750587|    0.242865|  1.4641e+00|  1.4641e+00|  1.4641e+00|
|         375|  3.5358e-01|   -4.256721|    1.750584|    0.242865|  1.0000e+00|  1.0000e+00|  1.0000e+00|
|         376|  3.5400e-01|   -4.319734|    1.750582|    0.242864|  1.1000e+00|  1.1000e+00|  1.1000e+00|
|         377|  3.5360e-01|   -4.357716|    1.750579|    0.242863|  1.0000e+00|  1.0000e+00|  1.0000e+00|
|         378|  3.5323e-01|   -4.370740|    1.750577|    0.242863|  1.1000e+00|  1.1000e+00|  1.1000e+00|
|         379|  3.5285e-01|   -4.373879|    1.750574|    0.242862|  1.2100e+00|  1.2100e+00|  1.2100e+00|
|         380|  3.5248e-01|   -4.375981|    1.750572|    0.242862|  1.3310e+00|  1.3310e+00|  1.3310e+00|
|         381|  3.5212e-01|   -4.351768|    1.750569|    0.242861|  1.4641e+00|  1.4641e+00|  1.4641e+00|
|         382|  3.5176e-01|   -4.303016|    1.750565|    0.242860|  1.6105e+00|  1.6105e+00|  1.6105e+00|
|         383|  3.5143e-01|   -4.353719|    1.750562|    0.242859|  1.7716e+00|  1.7716e+00|  1.7716e+00|
|         384|  3.5110e-01|   -4.365542|    1.750558|    0.242859|  1.9487e+00|  1.9487e+00|  1.9487e+00|
|         385|  3.5137e-01|   -4.363594|    1.750553|    0.242858|  2.1436e+00|  2.1436e+00|  2.1436e+00|
|         386|  3.5103e-01|   -4.374212|    1.750548|    0.242856|  2.3579e+00|  2.3579e+00|  2.3579e+00|
|         387|  3.5071e-01|   -4.327747|    1.750543|    0.242855|  2.5937e+00|  2.5937e+00|  2.5937e+00|
|         388|  3.5040e-01|   -4.261872|    1.750537|    0.242854|  2.8531e+00|  2.8531e+00|  2.8531e+00|
|         389|  3.5013e-01|   -4.350908|    1.750531|    0.242852|  3.1384e+00|  3.1384e+00|  3.1384e+00|
|         390|  3.4986e-01|   -4.365102|    1.750524|    0.242851|  3.4523e+00|  3.4523e+00|  3.4523e+00|
|         391|  3.4988e-01|   -4.313148|    1.750516|    0.242849|  3.7975e+00|  3.7975e+00|  3.7975e+00|
|         392|  3.5010e-01|   -4.324935|    1.750508|    0.242847|  4.1772e+00|  4.1772e+00|  4.1772e+00|
|         393|  3.4987e-01|   -4.347949|    1.750498|    0.242845|  4.5950e+00|  4.5950e+00|  4.5950e+00|
|         394|  3.4965e-01|   -4.333697|    1.750488|    0.242843|  5.0545e+00|  5.0545e+00|  5.0545e+00|
|         395|  3.4943e-01|   -4.144124|    1.750477|    0.242840|  5.5599e+00|  5.5599e+00|  5.5599e+00|
|         396|  3.4925e-01|   -4.321379|    1.750464|    0.242837|  6.1159e+00|  6.1159e+00|  6.1159e+00|
|         397|  3.4908e-01|   -4.328080|    1.750451|    0.242834|  6.7275e+00|  6.7275e+00|  6.7275e+00|
|         398|  3.4890e-01|   -4.232656|    1.750436|    0.242830|  3.3637e+00|  3.3637e+00|  3.3637e+00|
|         399|  3.4863e-01|   -4.306101|    1.750428|    0.242829|  3.7001e+00|  3.7001e+00|  3.7001e+00|
|         400|  3.4907e-01|   -4.291867|    1.750420|    0.242827|  1.8501e+00|  1.8501e+00|  1.8501e+00|
|         401|  3.4876e-01|   -4.314162|    1.750416|    0.242826|  2.0351e+00|  2.0351e+00|  2.0351e+00|
|         402|  3.4846e-01|   -4.135924|    1.750412|    0.242825|  1.0175e+00|  1.0175e+00|  1.0175e+00|
|         403|  3.4811e-01|   -4.281160|    1.750410|    0.242824|  1.0000e+00|  1.0000e+00|  1.0000e+00|
|         404|  3.4776e-01|   -4.337185|    1.750407|    0.242824|  1.0000e+00|  1.0000e+00|  1.0000e+00|
|         405|  3.4742e-01|   -4.350946|    1.750405|    0.242823|  1.0000e+00|  1.0000e+00|  1.0000e+00|
|         406|  3.4707e-01|   -4.354993|    1.750403|    0.242823|  1.0000e+00|  1.0000e+00|  1.0000e+00|
|         407|  3.4682e-01|   -4.359132|    1.750401|    0.242822|  1.0000e+00|  1.0000e+00|  1.0000e+00|
|         408|  3.4730e-01|   -4.363524|    1.750398|    0.242822|  1.0000e+00|  1.0000e+00|  1.0000e+00|
|         409|  3.4694e-01|   -4.367742|    1.750396|    0.242821|  1.0000e+00|  1.0000e+00|  1.0000e+00|
|         410|  3.4660e-01|   -4.295133|    1.750394|    0.242821|  1.1000e+00|  1.1000e+00|  1.1000e+00|
|         411|  3.4628e-01|   -4.316936|    1.750392|    0.242820|  1.0000e+00|  1.0000e+00|  1.0000e+00|
|         412|  3.4595e-01|   -4.344596|    1.750389|    0.242820|  1.0000e+00|  1.0000e+00|  1.0000e+00|
|         413|  3.4563e-01|   -4.356673|    1.750387|    0.242819|  1.0000e+00|  1.0000e+00|  1.0000e+00|
|         414|  3.4531e-01|   -4.362658|    1.750385|    0.242819|  1.1000e+00|  1.1000e+00|  1.1000e+00|
|         415|  3.4505e-01|   -4.368995|    1.750383|    0.242818|  1.0000e+00|  1.0000e+00|  1.0000e+00|
|         416|  3.4564e-01|   -4.382378|    1.750380|    0.242817|  1.1000e+00|  1.1000e+00|  1.1000e+00|
|         417|  3.4530e-01|   -4.382864|    1.750378|    0.242817|  1.2100e+00|  1.2100e+00|  1.2100e+00|
|         418|  3.4498e-01|   -4.370848|    1.750375|    0.242816|  1.3310e+00|  1.3310e+00|  1.3310e+00|
|         419|  3.4467e-01|   -4.274097|    1.750372|    0.242816|  1.4641e+00|  1.4641e+00|  1.4641e+00|
|         420|  3.4438e-01|   -4.332773|    1.750369|    0.242815|  1.6105e+00|  1.6105e+00|  1.6105e+00|
|         421|  3.4410e-01|   -4.382795|    1.750366|    0.242814|  1.7716e+00|  1.7716e+00|  1.7716e+00|
|         422|  3.4403e-01|   -4.392625|    1.750362|    0.242813|  1.9487e+00|  1.9487e+00|  1.9487e+00|
|         423|  3.4427e-01|   -4.394426|    1.750357|    0.242812|  2.1436e+00|  2.1436e+00|  2.1436e+00|
|         424|  3.4399e-01|   -4.270733|    1.750353|    0.242811|  2.3579e+00|  2.3579e+00|  2.3579e+00|
|         425|  3.4371e-01|   -4.369289|    1.750348|    0.242810|  2.5937e+00|  2.5937e+00|  2.5937e+00|
|         426|  3.4348e-01|   -4.381906|    1.750342|    0.242808|  2.8531e+00|  2.8531e+00|  2.8531e+00|
|         427|  3.4327e-01|   -4.367897|    1.750336|    0.242807|  3.1384e+00|  3.1384e+00|  3.1384e+00|
|         428|  3.4365e-01|   -4.361773|    1.750329|    0.242805|  3.4523e+00|  3.4523e+00|  3.4523e+00|
|         429|  3.4350e-01|   -4.204946|    1.750321|    0.242803|  1.7261e+00|  1.7261e+00|  1.7261e+00|
|         430|  3.4323e-01|   -4.358135|    1.750317|    0.242802|  1.8987e+00|  1.8987e+00|  1.8987e+00|
|         431|  3.4297e-01|   -4.370401|    1.750313|    0.242801|  2.0886e+00|  2.0886e+00|  2.0886e+00|
|         432|  3.4270e-01|   -4.371732|    1.750308|    0.242800|  2.2975e+00|  2.2975e+00|  2.2975e+00|
|         433|  3.4243e-01|   -4.360561|    1.750303|    0.242799|  2.5272e+00|  2.5272e+00|  2.5272e+00|
|         434|  3.4222e-01|   -4.295388|    1.750298|    0.242797|  1.2636e+00|  1.2636e+00|  1.2636e+00|
|         435|  3.4192e-01|   -4.350963|    1.750295|    0.242797|  1.0000e+00|  1.0000e+00|  1.0000e+00|
|         436|  3.4197e-01|   -4.358906|    1.750293|    0.242796|  1.1000e+00|  1.1000e+00|  1.1000e+00|
|         437|  3.4188e-01|   -4.358671|    1.750291|    0.242796|  1.2100e+00|  1.2100e+00|  1.2100e+00|
|         438|  3.4159e-01|   -4.367040|    1.750288|    0.242795|  1.3310e+00|  1.3310e+00|  1.3310e+00|
|         439|  3.4132e-01|   -4.362622|    1.750285|    0.242794|  1.4641e+00|  1.4641e+00|  1.4641e+00|
|         440|  3.4106e-01|   -4.324316|    1.750282|    0.242793|  1.0000e+00|  1.0000e+00|  1.0000e+00|
|         441|  3.4077e-01|   -4.268621|    1.750279|    0.242793|  1.0000e+00|  1.0000e+00|  1.0000e+00|
|         442|  3.4050e-01|   -4.321151|    1.750277|    0.242792|  1.0000e+00|  1.0000e+00|  1.0000e+00|
|         443|  3.4087e-01|   -4.364549|    1.750275|    0.242792|  1.0000e+00|  1.0000e+00|  1.0000e+00|
|         444|  3.4056e-01|   -4.381488|    1.750273|    0.242791|  1.0000e+00|  1.0000e+00|  1.0000e+00|
|         445|  3.4028e-01|   -4.385530|    1.750271|    0.242791|  1.0000e+00|  1.0000e+00|  1.0000e+00|
|         446|  3.4000e-01|   -4.387518|    1.750268|    0.242790|  1.1000e+00|  1.1000e+00|  1.1000e+00|
|         447|  3.3971e-01|   -4.389267|    1.750266|    0.242789|  1.2100e+00|  1.2100e+00|  1.2100e+00|
|         448|  3.3943e-01|   -4.288210|    1.750263|    0.242789|  1.0000e+00|  1.0000e+00|  1.0000e+00|
|         449|  3.3914e-01|   -4.346727|    1.750261|    0.242788|  1.0000e+00|  1.0000e+00|  1.0000e+00|
|         450|  3.3936e-01|   -4.367797|    1.750259|    0.242788|  1.0000e+00|  1.0000e+00|  1.0000e+00|
|         451|  3.3924e-01|   -4.377482|    1.750257|    0.242787|  1.0000e+00|  1.0000e+00|  1.0000e+00|
|         452|  3.3896e-01|   -4.378284|    1.750255|    0.242786|  1.1000e+00|  1.1000e+00|  1.1000e+00|
|         453|  3.3868e-01|   -4.377440|    1.750252|    0.242786|  1.2100e+00|  1.2100e+00|  1.2100e+00|
|         454|  3.3841e-01|   -4.388926|    1.750249|    0.242785|  1.0000e+00|  1.0000e+00|  1.0000e+00|
|         455|  3.3813e-01|   -4.373499|    1.750247|    0.242785|  1.0000e+00|  1.0000e+00|  1.0000e+00|
|         456|  3.3785e-01|   -4.327901|    1.750245|    0.242784|  1.0000e+00|  1.0000e+00|  1.0000e+00|
|         457|  3.3805e-01|   -4.282149|    1.750243|    0.242783|  1.0000e+00|  1.0000e+00|  1.0000e+00|
|         458|  3.3817e-01|   -4.337577|    1.750241|    0.242783|  1.0000e+00|  1.0000e+00|  1.0000e+00|
|         459|  3.3789e-01|   -4.379825|    1.750238|    0.242782|  1.0000e+00|  1.0000e+00|  1.0000e+00|
|         460|  3.3761e-01|   -4.394707|    1.750236|    0.242782|  1.1000e+00|  1.1000e+00|  1.1000e+00|
|         461|  3.3735e-01|   -4.397566|    1.750234|    0.242781|  1.2100e+00|  1.2100e+00|  1.2100e+00|
|         462|  3.3708e-01|   -4.398577|    1.750231|    0.242780|  1.3310e+00|  1.3310e+00|  1.3310e+00|
|         463|  3.3684e-01|   -4.398843|    1.750228|    0.242780|  1.4641e+00|  1.4641e+00|  1.4641e+00|
|         464|  3.3659e-01|   -4.271667|    1.750225|    0.242779|  1.0000e+00|  1.0000e+00|  1.0000e+00|
|         465|  3.3712e-01|   -4.364976|    1.750223|    0.242778|  1.0000e+00|  1.0000e+00|  1.0000e+00|
|         466|  3.3683e-01|   -4.378069|    1.750220|    0.242778|  1.0000e+00|  1.0000e+00|  1.0000e+00|
|         467|  3.3657e-01|   -4.385533|    1.750218|    0.242777|  1.1000e+00|  1.1000e+00|  1.1000e+00|
|         468|  3.3630e-01|   -4.385408|    1.750216|    0.242776|  1.0000e+00|  1.0000e+00|  1.0000e+00|
|         469|  3.3604e-01|   -4.388524|    1.750213|    0.242776|  1.0000e+00|  1.0000e+00|  1.0000e+00|
|         470|  3.3578e-01|   -4.392158|    1.750211|    0.242775|  1.0000e+00|  1.0000e+00|  1.0000e+00|
|         471|  3.3551e-01|   -4.376654|    1.750209|    0.242775|  1.1000e+00|  1.1000e+00|  1.1000e+00|
|         472|  3.3558e-01|   -4.261191|    1.750207|    0.242774|  1.0000e+00|  1.0000e+00|  1.0000e+00|
|         473|  3.3582e-01|   -4.307735|    1.750204|    0.242774|  1.0000e+00|  1.0000e+00|  1.0000e+00|
|         474|  3.3555e-01|   -4.362025|    1.750202|    0.242773|  1.0000e+00|  1.0000e+00|  1.0000e+00|
|         475|  3.3530e-01|   -4.388756|    1.750200|    0.242772|  1.1000e+00|  1.1000e+00|  1.1000e+00|
|         476|  3.3504e-01|   -4.394382|    1.750197|    0.242772|  1.2100e+00|  1.2100e+00|  1.2100e+00|
|         477|  3.3478e-01|   -4.395075|    1.750195|    0.242771|  1.3310e+00|  1.3310e+00|  1.3310e+00|
|         478|  3.3456e-01|   -4.395207|    1.750192|    0.242770|  1.0000e+00|  1.0000e+00|  1.0000e+00|
|         479|  3.3430e-01|   -4.274582|    1.750190|    0.242770|  1.0000e+00|  1.0000e+00|  1.0000e+00|
|         480|  3.3469e-01|   -4.349230|    1.750187|    0.242769|  1.0000e+00|  1.0000e+00|  1.0000e+00|
|         481|  3.3458e-01|   -4.371083|    1.750185|    0.242768|  1.0000e+00|  1.0000e+00|  1.0000e+00|
|         482|  3.3433e-01|   -4.380448|    1.750183|    0.242768|  1.1000e+00|  1.1000e+00|  1.1000e+00|
|         483|  3.3408e-01|   -4.380485|    1.750180|    0.242767|  1.0000e+00|  1.0000e+00|  1.0000e+00|
|         484|  3.3382e-01|   -4.378679|    1.750178|    0.242767|  1.0000e+00|  1.0000e+00|  1.0000e+00|
|         485|  3.3357e-01|   -4.386583|    1.750176|    0.242766|  1.0000e+00|  1.0000e+00|  1.0000e+00|
|         486|  3.3381e-01|   -4.377772|    1.750174|    0.242765|  1.0000e+00|  1.0000e+00|  1.0000e+00|
|         487|  3.3354e-01|   -4.355500|    1.750171|    0.242765|  1.0000e+00|  1.0000e+00|  1.0000e+00|
|         488|  3.3329e-01|   -4.261999|    1.750169|    0.242764|  1.0000e+00|  1.0000e+00|  1.0000e+00|
|         489|  3.3304e-01|   -4.315835|    1.750167|    0.242764|  1.0000e+00|  1.0000e+00|  1.0000e+00|
|         490|  3.3280e-01|   -4.365503|    1.750165|    0.242763|  1.0000e+00|  1.0000e+00|  1.0000e+00|
|         491|  3.3284e-01|   -4.388494|    1.750163|    0.242762|  1.0000e+00|  1.0000e+00|  1.0000e+00|
|         492|  3.3294e-01|   -4.393389|    1.750160|    0.242762|  1.1000e+00|  1.1000e+00|  1.1000e+00|
|         493|  3.3269e-01|   -4.394720|    1.750158|    0.242761|  1.0000e+00|  1.0000e+00|  1.0000e+00|
|         494|  3.3245e-01|   -4.395753|    1.750156|    0.242761|  1.1000e+00|  1.1000e+00|  1.1000e+00|
|         495|  3.3221e-01|   -4.300778|    1.750153|    0.242760|  1.2100e+00|  1.2100e+00|  1.2100e+00|
|         496|  3.3196e-01|   -4.345838|    1.750150|    0.242759|  1.0000e+00|  1.0000e+00|  1.0000e+00|
|         497|  3.3219e-01|   -4.373225|    1.750148|    0.242759|  1.0000e+00|  1.0000e+00|  1.0000e+00|
|         498|  3.3207e-01|   -4.382556|    1.750146|    0.242758|  1.1000e+00|  1.1000e+00|  1.1000e+00|
|         499|  3.3182e-01|   -4.382232|    1.750143|    0.242757|  1.2100e+00|  1.2100e+00|  1.2100e+00|

----------------------------- Solver Exit -------------------------------

Maximum number of iterations reached (ITER = 500) before convergence.
+-----------------------------------------------------------------------+
|      Convergence Field     |     Value    |   Criterion  |  Converged |
+-----------------------------------------------------------------------+
|                  Cauchy[CL]|   1.62871e-06|       < 1e-06|          No|
+-----------------------------------------------------------------------+
-------------------------------------------------------------------------
+-----------------------------------------------------------------------+
|        File Writing Summary       |              Filename             |
+-----------------------------------------------------------------------+
|SU2 binary restart                 |restart_flow.dat                   |

Writing the forces breakdown file (forces_breakdown.dat).
|Paraview                           |flow.vtu                           |

Writing the forces breakdown file (forces_breakdown.dat).
|Paraview surface                   |surface_flow.vtu                   |

Writing the forces breakdown file (forces_breakdown.dat).
+-----------------------------------------------------------------------+

--------------------------- Finalizing Solver ---------------------------
Deleted CNumerics container.
Deleted CIntegration container.
Deleted CSolver container.
Deleted CIteration container.
Deleted CInterface container.
Deleted CGeometry container.
Deleted CFreeFormDefBox class.
Deleted CSurfaceMovement class.
Deleted CVolumetricMovement class.
Deleted CConfig container.
Deleted nInst container.
Deleted COutput class.
-------------------------------------------------------------------------

------------------------- Exit Success (SU2_CFD) ------------------------

