
-------------------------------------------------------------------------
|    ___ _   _ ___                                                      |
|   / __| | | |_  )   Release 8.0.0 "Harrier"                           |
|   \__ \ |_| |/ /                                                      |
|   |___/\___//___|   Suite (Computational Fluid Dynamics Code)         |
|                                                                       |
-------------------------------------------------------------------------
| SU2 Project Website: https://su2code.github.io                        |
|                                                                       |
| The SU2 Project is maintained by the SU2 Foundation                   |
| (http://su2foundation.org)                                            |
-------------------------------------------------------------------------
| Copyright 2012-2023, SU2 Contributors                                 |
|                                                                       |
| SU2 is free software; you can redistribute it and/or                  |
| modify it under the terms of the GNU Lesser General Public            |
| License as published by the Free Software Foundation; either          |
| version 2.1 of the License, or (at your option) any later version.    |
|                                                                       |
| SU2 is distributed in the hope that it will be useful,                |
| but WITHOUT ANY WARRANTY; without even the implied warranty of        |
| MERCHANTABILITY or FITNESS FOR A PARTICULAR PURPOSE. See the GNU      |
| Lesser General Public License for more details.                       |
|                                                                       |
| You should have received a copy of the GNU Lesser General Public      |
| License along with SU2. If not, see <http://www.gnu.org/licenses/>.   |
-------------------------------------------------------------------------

Parsing config file for zone 0

----------------- Physical Case Definition ( Zone 0 ) -------------------
Compressible RANS equations.
Turbulence model: Menter's k-omega SST-2003m with no production modification.
Hybrid RANS/LES: No Hybrid RANS/LES
Mach number: 0.729.
Angle of attack (AoA): 2 deg, and angle of sideslip (AoS): 0 deg.
Reynolds number: 6.5e+06. Reference length 1.
Reading and writing binary SU2 native restart files.
Read flow solution from: restart_flow.dat.
Dimensional simulation.
The reference area is 1 m^2.
The semi-span will be computed using the max y(3D) value.
The reference length is 1 m.
Surface(s) where the force coefficients are evaluated and 
their reference origin for moment computation: 
   - Airfoil (0.25, 0, 0).
   - Flap (0.25, 0, 0).
   - Slat (0.25, 0, 0) m.
Surface(s) plotted in the output file: Airfoil, Flap, Slat.
Input mesh file name: Mesh.su2

--------------- Space Numerical Integration ( Zone 0 ) ------------------
Roe (with entropy fix = 0.001) solver for the flow inviscid terms.
Standard Roe without low-dissipation function.
Second order integration in space, with slope limiter.
Venkatakrishnan slope-limiting method, with constant: 0.03.
The reference element size is: 1. 
Scalar upwind solver for the turbulence model.
First order integration in space.
Average of gradients with correction (viscous flow terms).
Average of gradients with correction (viscous turbulence terms).
Gradient for upwind reconstruction: inverse-distance weighted Least-Squares.
Gradient for viscous and source terms: inverse-distance weighted Least-Squares.

--------------- Time Numerical Integration  ( Zone 0 ) ------------------
Local time stepping (steady state simulation).
Euler implicit method for the flow equations.
FGMRES is used for solving the linear system.
Using a ILU(0) preconditioning.
Convergence criteria of the linear solver: 0.01.
Max number of linear iterations: 5.
CFL adaptation. Factor down: 0.5, factor up: 1.1,
                lower limit: 50, upper limit: 10000,
                acceptable linear residual: 0.01.
Courant-Friedrichs-Lewy number:       20
Euler implicit time integration for the turbulence model.

------------------ Convergence Criteria  ( Zone 0 ) ---------------------
Maximum number of solver subiterations: 500.
Begin convergence monitoring at iteration 10.
Residual minimum value: 1e-14.
Cauchy series min. value: 1e-06.
Number of Cauchy elements: 100.
Begin windowed time average at iteration 0.

-------------------- Output Information ( Zone 0 ) ----------------------
File writing frequency: 
+------------------------------------+
|                     File| Frequency|
+------------------------------------+
|                  RESTART|      1000|
|                 PARAVIEW|      1000|
|         SURFACE_PARAVIEW|      1000|
+------------------------------------+
Writing the convergence history file every 1 inner iterations.
Writing the screen convergence history every 1 inner iterations.
The tabular file format is CSV (.csv).
Convergence history file name: historyThird.
Forces breakdown file name: forces_breakdown.dat.
Surface file name: surface_flow.
Volume file name: flow.
Restart file name: restart_flow.dat.

------------- Config File Boundary Information ( Zone 0 ) ---------------
+-----------------------------------------------------------------------+
|                        Marker Type|                        Marker Name|
+-----------------------------------------------------------------------+
|                          Far-field|                           Farfield|
+-----------------------------------------------------------------------+
|                     Heat flux wall|                            Airfoil|
|                                   |                               Flap|
|                                   |                               Slat|
+-----------------------------------------------------------------------+

-------------------- Output Preprocessing ( Zone 0 ) --------------------

WARNING: SURFACE_PRESSURE_DROP can only be computed for at least 2 surfaces (outlet, inlet, ...)

Screen output fields: INNER_ITER, WALL_TIME, RMS_DENSITY, LIFT, DRAG, LINSOL_ITER, LINSOL_RESIDUAL, MIN_CFL, MAX_CFL, AVG_CFL
  Info: Ignoring the following history output groups:
  RESIDUALS, CFL
History output group(s): INNER_ITER, LIFT, DRAG
Convergence field(s): LIFT
Warning: No (valid) fields chosen for time convergence monitoring. Time convergence monitoring inactive.
  Info: Ignoring the following volume output fields/groups:
  RESIDUALS
Volume output fields: SOLUTION, PRIMITIVE, GRADIENTS, HESSIANS, EIGENVALUES, COORDINATES

------------------- Geometry Preprocessing ( Zone 0 ) -------------------
Two dimensional problem.
135071 grid points before partitioning.
140500 volume elements before partitioning.
4 surface markers.
1001 boundary elements in index 0 (Marker = Airfoil).
158 boundary elements in index 1 (Marker = Farfield).
491 boundary elements in index 2 (Marker = Flap).
348 boundary elements in index 3 (Marker = Slat).
Executing the partitioning functions.
Building the graph adjacency structure.
Calling ParMETIS... graph partitioning complete (1164 edge cuts).
Distributing ParMETIS coloring.
Rebalancing vertices.
Rebalancing volume element connectivity.
Rebalancing markers and surface elements.
137347 vertices including ghost points. 
141665 interior elements including halo cells. 
12916 triangles.
128749 quadrilaterals.
Establishing MPI communication patterns.
Setting point connectivity.
Renumbering points (Reverse Cuthill McKee Ordering).
Recomputing point connectivity.
Setting element connectivity.
Checking the numerical grid orientation.
All volume elements are correctly orientend.
All surface elements are correctly orientend.
Identifying edges and vertices.
Setting the control volume structure.
Area of the computational grid: 31408.1.
Searching for the closest normal neighbors to the surfaces.
Storing a mapping from global to local point index.
Compute the surface curvature.
Max K: 27822.3. Mean K: 88.6279. Standard deviation K: 1195.61.
Checking for periodicity.
Computing mesh quality statistics for the dual control volumes.
+--------------------------------------------------------------+
|           Mesh Quality Metric|        Minimum|        Maximum|
+--------------------------------------------------------------+
|    Orthogonality Angle (deg.)|        54.9514|             90|
|     CV Face Area Aspect Ratio|        1.00186|        1281.34|
|           CV Sub-Volume Ratio|        1.00002|         23.373|
+--------------------------------------------------------------+
Finding max control volume width.
Communicating number of neighbors.
Wetted area = 2.56915 m.
Area projection in the x-plane = 0.364737 m, y-plane = 1.14808 m.
Max. coordinate in the x-direction = 1.06769 m, y-direction = 0.0602558 m.
Min. coordinate in the x-direction = -0.0559936 m, y-direction = -0.147724 m.
Computing wall distances.

-------------------- Solver Preprocessing ( Zone 0 ) --------------------
Viscous flow: Computing pressure using the ideal gas law
based on the free-stream temperature and a density computed
from the Reynolds number.
Force coefficients computed using free-stream values.

-- Models:
+------------------------------------------------------------------------------+
|          Viscosity Model|        Conductivity Model|              Fluid Model|
+------------------------------------------------------------------------------+
|               SUTHERLAND|          CONSTANT_PRANDTL|             STANDARD_AIR|
+------------------------------------------------------------------------------+
-- Fluid properties:
+------------------------------------------------------------------------------+
|                  Name|    Dim. value|    Ref. value|      Unit|Non-dim. value|
+------------------------------------------------------------------------------+
|        Ref. Viscosity|     1.716e-05|             1|   N.s/m^2|     1.716e-05|
|      Sutherland Temp.|        273.15|             1|         K|        273.15|
|     Sutherland Const.|         110.4|             1|         K|         110.4|
+------------------------------------------------------------------------------+
|        Prandtl (Lam.)|             -|             -|         -|          0.72|
|       Prandtl (Turb.)|             -|             -|         -|           0.9|
+------------------------------------------------------------------------------+
|          Gas Constant|       287.058|             1|  N.m/kg.K|       287.058|
|      Spec. Heat Ratio|             -|             -|         -|           1.4|
+------------------------------------------------------------------------------+
-- Initial and free-stream conditions:
+------------------------------------------------------------------------------+
|                  Name|    Dim. value|    Ref. value|      Unit|Non-dim. value|
+------------------------------------------------------------------------------+
|       Static Pressure|       38779.2|             1|        Pa|       38779.2|
|               Density|      0.468824|             1|    kg/m^3|      0.468824|
|           Temperature|        288.15|             1|         K|        288.15|
|          Total Energy|        237791|             1|   m^2/s^2|        237791|
|            Velocity-X|       247.925|             1|       m/s|       247.925|
|            Velocity-Y|       8.65775|             1|       m/s|       8.65775|
|    Velocity Magnitude|       248.077|             1|       m/s|       248.077|
+------------------------------------------------------------------------------+
|             Viscosity|    1.7893e-05|             1|   N.s/m^2|    1.7893e-05|
|          Conductivity|             -|             1|   W/m^2.K|             -|
|     Turb. Kin. Energy|       230.782|             1|   m^2/s^2|       230.782|
|     Spec. Dissipation|        604687|             1|       1/s|        604687|
+------------------------------------------------------------------------------+
|           Mach Number|             -|             -|         -|         0.729|
|       Reynolds Number|             -|             -|         -|       6.5e+06|
+------------------------------------------------------------------------------+
Initialize Jacobian structure (Navier-Stokes). MG level: 0.
Initialize Jacobian structure (SST model).

------------------- Numerics Preprocessing ( Zone 0 ) -------------------

----------------- Integration Preprocessing ( Zone 0 ) ------------------

------------------- Iteration Preprocessing ( Zone 0 ) ------------------
Euler/Navier-Stokes/RANS fluid iteration.

------------------------------ Begin Solver -----------------------------

Simulation Run using the Single-zone Driver
WARNING: SU2 was not compiled for an AVX-capable architecture. Performance could be better,
         see https://su2code.github.io/docs_v7/Build-SU2-Linux-MacOS/#compiler-optimizations
+---------------------------------------------------------------------------------------------------------------------------------+
|  Inner_Iter|   Time(sec)|    rms[Rho]|          CL|          CD|Linear_Solve|   LinSolRes|     Min CFL|     Max CFL|     Avg CFL|
+---------------------------------------------------------------------------------------------------------------------------------+
|           0|  2.1778e-01|   -4.380611|    1.750098|    0.242745|           5|   -2.205904|  5.0000e+01|  5.0000e+01|  5.0000e+01|
|           1|  2.1755e-01|   -4.108224|    1.749986|    0.242717|           5|   -1.652913|  5.0000e+01|  5.0000e+01|  5.0000e+01|
|           2|  2.1474e-01|   -3.967513|    1.749875|    0.242692|           5|   -1.694046|  5.0000e+01|  5.0000e+01|  5.0000e+01|
|           3|  2.1316e-01|   -3.877198|    1.749766|    0.242670|           5|   -1.806868|  5.0000e+01|  5.0000e+01|  5.0000e+01|
|           4|  2.1228e-01|   -3.838737|    1.749656|    0.242651|           5|   -1.858973|  5.0000e+01|  5.0000e+01|  5.0000e+01|
|           5|  2.1176e-01|   -3.793656|    1.749544|    0.242633|           5|   -1.931192|  5.0000e+01|  5.0000e+01|  5.0000e+01|
|           6|  2.1144e-01|   -3.803855|    1.749429|    0.242615|           5|   -1.908850|  5.0000e+01|  5.0000e+01|  5.0000e+01|
|           7|  2.1115e-01|   -3.797161|    1.749309|    0.242596|           5|   -1.920130|  5.0000e+01|  5.0000e+01|  5.0000e+01|
|           8|  2.1100e-01|   -3.796421|    1.749183|    0.242576|           5|   -1.912970|  5.0000e+01|  5.0000e+01|  5.0000e+01|
|           9|  2.3323e-01|   -3.786312|    1.749053|    0.242555|           5|   -1.945783|  5.0000e+01|  5.0000e+01|  5.0000e+01|
|          10|  2.7009e-01|   -3.758380|    1.748918|    0.242533|           5|   -0.693354|  5.0000e+01|  5.0000e+01|  5.0000e+01|
|          11|  3.2748e-01|   -3.948220|    1.748779|    0.242512|           5|   -0.641028|  5.0000e+01|  5.0000e+01|  5.0000e+01|
|          12|  3.5285e-01|   -4.027013|    1.748636|    0.242489|           5|   -0.656359|  5.0000e+01|  5.0000e+01|  5.0000e+01|
|          13|  3.7702e-01|   -4.015004|    1.748507|    0.242468|           5|   -0.663799|  5.0000e+01|  5.0000e+01|  5.0000e+01|
|          14|  4.2251e-01|   -4.097011|    1.748374|    0.242447|           5|   -0.516861|  5.0000e+01|  5.0000e+01|  5.0000e+01|
|          15|  4.3702e-01|   -3.775425|    1.748211|    0.242419|           5|   -0.737330|  5.0000e+01|  5.0000e+01|  5.0000e+01|
|          16|  4.7463e-01|   -3.866609|    1.748066|    0.242394|           5|   -0.732906|  5.0000e+01|  5.0000e+01|  5.0000e+01|
|          17|  4.8492e-01|   -3.857010|    1.747911|    0.242366|           5|   -0.779554|  5.0000e+01|  5.0000e+01|  5.0000e+01|
|          18|  5.0580e-01|   -3.939681|    1.747770|    0.242340|           5|   -0.603529|  5.0000e+01|  5.0000e+01|  5.0000e+01|
|          19|  5.2453e-01|   -3.866120|    1.747618|    0.242310|           5|   -0.767962|  5.0000e+01|  5.0000e+01|  5.0000e+01|
|          20|  5.3118e-01|   -4.013256|    1.747478|    0.242282|           5|   -0.655258|  5.0000e+01|  5.0000e+01|  5.0000e+01|
|          21|  5.5549e-01|   -4.014099|    1.747341|    0.242253|           5|   -0.702526|  5.0000e+01|  5.0000e+01|  5.0000e+01|
|          22|  5.5950e-01|   -4.007576|    1.747206|    0.242224|           5|   -0.755370|  5.0000e+01|  5.0000e+01|  5.0000e+01|
|          23|  5.7521e-01|   -3.929115|    1.747079|    0.242197|           5|   -0.711854|  5.0000e+01|  5.0000e+01|  5.0000e+01|
|          24|  5.8062e-01|   -3.840070|    1.746969|    0.242173|           5|   -0.725889|  5.0000e+01|  5.0000e+01|  5.0000e+01|
|          25|  5.9288e-01|   -4.024736|    1.746873|    0.242152|           5|   -0.491087|  5.0000e+01|  5.0000e+01|  5.0000e+01|
|          26|  6.0654e-01|   -4.042179|    1.746774|    0.242130|           5|   -0.547308|  5.0000e+01|  5.0000e+01|  5.0000e+01|
|          27|  6.0883e-01|   -4.066625|    1.746678|    0.242109|           5|   -0.544502|  5.0000e+01|  5.0000e+01|  5.0000e+01|
|          28|  6.2179e-01|   -4.027053|    1.746596|    0.242091|           5|   -0.505234|  5.0000e+01|  5.0000e+01|  5.0000e+01|
|          29|  6.2403e-01|   -4.078800|    1.746532|    0.242076|           5|   -0.487333|  5.0000e+01|  5.0000e+01|  5.0000e+01|
|          30|  6.3625e-01|   -4.054330|    1.746457|    0.242060|           5|   -0.554860|  5.0000e+01|  5.0000e+01|  5.0000e+01|
|          31|  6.3750e-01|   -4.132743|    1.746390|    0.242046|           5|   -0.481132|  5.0000e+01|  5.0000e+01|  5.0000e+01|
|          32|  6.4743e-01|   -4.143887|    1.746314|    0.242030|           5|   -0.647319|  5.0000e+01|  5.0000e+01|  5.0000e+01|
|          33|  6.4785e-01|   -4.097757|    1.746243|    0.242016|           5|   -0.684923|  5.0000e+01|  5.0000e+01|  5.0000e+01|
|          34|  6.5773e-01|   -4.139442|    1.746181|    0.242005|           5|   -0.591870|  5.0000e+01|  5.0000e+01|  5.0000e+01|
|          35|  6.5830e-01|   -4.104276|    1.746118|    0.241993|           5|   -0.634332|  5.0000e+01|  5.0000e+01|  5.0000e+01|
|          36|  6.6220e-01|   -3.971628|    1.746076|    0.241986|           5|   -0.448883|  5.0000e+01|  5.0000e+01|  5.0000e+01|
|          37|  6.6750e-01|   -4.054932|    1.746029|    0.241979|           5|   -0.520085|  5.0000e+01|  5.0000e+01|  5.0000e+01|
|          38|  6.6823e-01|   -4.092301|    1.745982|    0.241972|           5|   -0.452088|  5.0000e+01|  5.0000e+01|  5.0000e+01|
|          39|  6.7720e-01|   -4.102085|    1.745921|    0.241963|           5|   -0.701246|  5.0000e+01|  5.0000e+01|  5.0000e+01|
|          40|  6.7754e-01|   -4.136251|    1.745871|    0.241956|           5|   -0.530218|  5.0000e+01|  5.0000e+01|  5.0000e+01|
|          41|  6.8374e-01|   -4.128893|    1.745822|    0.241950|           5|   -0.505432|  5.0000e+01|  5.0000e+01|  5.0000e+01|
|          42|  6.8356e-01|   -3.896011|    1.745751|    0.241940|           5|   -0.866790|  5.0000e+01|  5.0000e+01|  5.0000e+01|
|          43|  6.9010e-01|   -4.016232|    1.745699|    0.241929|           5|   -0.589160|  5.0000e+01|  5.0000e+01|  5.0000e+01|
|          44|  6.8954e-01|   -4.079473|    1.745640|    0.241922|           5|   -0.558620|  5.0000e+01|  5.0000e+01|  5.0000e+01|
|          45|  6.9228e-01|   -3.998050|    1.745575|    0.241912|           5|   -0.560440|  5.0000e+01|  5.0000e+01|  5.0000e+01|
|          46|  6.9487e-01|   -3.988226|    1.745508|    0.241902|           5|   -0.563789|  5.0000e+01|  5.0000e+01|  5.0000e+01|
|          47|  6.9471e-01|   -4.070661|    1.745444|    0.241891|           5|   -0.457060|  5.0000e+01|  5.0000e+01|  5.0000e+01|
|          48|  7.0050e-01|   -4.127196|    1.745393|    0.241882|           5|   -0.421938|  5.0000e+01|  5.0000e+01|  5.0000e+01|
|          49|  7.0034e-01|   -4.050315|    1.745324|    0.241871|           5|   -0.543971|  5.0000e+01|  5.0000e+01|  5.0000e+01|
|          50|  7.0604e-01|   -4.141193|    1.745269|    0.241861|           5|   -0.368494|  5.0000e+01|  5.0000e+01|  5.0000e+01|
|          51|  7.0577e-01|   -4.133549|    1.745215|    0.241852|           5|   -0.355061|  5.0000e+01|  5.0000e+01|  5.0000e+01|
|          52|  7.0949e-01|   -4.155217|    1.745201|    0.241850|           5|   -0.300372|  5.0000e+01|  5.0000e+01|  5.0000e+01|
|          53|  7.0916e-01|   -4.155776|    1.745161|    0.241843|           5|   -0.321259|  5.0000e+01|  5.0000e+01|  5.0000e+01|
|          54|  7.1383e-01|   -4.153120|    1.745139|    0.241839|           5|   -0.298580|  5.0000e+01|  5.0000e+01|  5.0000e+01|
|          55|  7.1381e-01|   -4.147437|    1.745079|    0.241828|           5|   -0.327366|  5.0000e+01|  5.0000e+01|  5.0000e+01|
|          56|  7.1831e-01|   -4.116781|    1.745016|    0.241817|           5|   -0.387617|  5.0000e+01|  5.0000e+01|  5.0000e+01|
|          57|  7.1728e-01|   -4.137275|    1.744966|    0.241808|           5|   -0.361400|  5.0000e+01|  5.0000e+01|  5.0000e+01|
|          58|  7.1898e-01|   -4.104026|    1.744875|    0.241791|           5|   -0.519968|  5.0000e+01|  5.0000e+01|  5.0000e+01|
|          59|  7.2054e-01|   -3.985477|    1.744779|    0.241774|           5|   -0.595321|  5.0000e+01|  5.0000e+01|  5.0000e+01|
|          60|  7.1989e-01|   -4.080597|    1.744690|    0.241757|           5|   -0.493259|  5.0000e+01|  5.0000e+01|  5.0000e+01|
|          61|  7.2261e-01|   -4.073051|    1.744595|    0.241739|           5|   -0.536021|  5.0000e+01|  5.0000e+01|  5.0000e+01|
|          62|  7.2283e-01|   -4.008012|    1.744508|    0.241722|           5|   -0.558553|  5.0000e+01|  5.0000e+01|  5.0000e+01|
|          63|  7.2667e-01|   -3.858197|    1.744420|    0.241705|           5|   -0.648238|  5.0000e+01|  5.0000e+01|  5.0000e+01|
|          64|  7.2512e-01|   -3.976688|    1.744335|    0.241688|           5|   -0.447935|  5.0000e+01|  5.0000e+01|  5.0000e+01|
|          65|  7.2644e-01|   -3.992084|    1.744240|    0.241669|           5|   -0.578698|  5.0000e+01|  5.0000e+01|  5.0000e+01|
|          66|  7.2771e-01|   -4.044543|    1.744160|    0.241653|           5|   -0.573252|  5.0000e+01|  5.0000e+01|  5.0000e+01|
|          67|  7.2622e-01|   -4.019776|    1.744088|    0.241638|           5|   -0.450736|  5.0000e+01|  5.0000e+01|  5.0000e+01|
|          68|  7.2548e-01|   -4.075292|    1.744020|    0.241623|           5|   -0.385068|  5.0000e+01|  5.0000e+01|  5.0000e+01|
|          69|  7.2934e-01|   -3.975046|    1.743922|    0.241603|           5|   -0.678848|  5.0000e+01|  5.0000e+01|  5.0000e+01|
|          70|  7.2847e-01|   -4.024555|    1.743848|    0.241587|           5|   -0.514362|  5.0000e+01|  5.0000e+01|  5.0000e+01|
|          71|  7.3184e-01|   -4.086310|    1.743759|    0.241567|           5|   -0.586081|  5.0000e+01|  5.0000e+01|  5.0000e+01|
|          72|  7.3082e-01|   -4.072450|    1.743679|    0.241549|           5|   -0.514502|  5.0000e+01|  5.0000e+01|  5.0000e+01|
|          73|  7.3034e-01|   -4.114781|    1.743611|    0.241532|           5|   -0.493831|  5.0000e+01|  5.0000e+01|  5.0000e+01|
|          74|  7.3365e-01|   -4.024944|    1.743542|    0.241516|           5|   -0.591695|  5.0000e+01|  5.0000e+01|  5.0000e+01|
|          75|  7.3315e-01|   -4.147047|    1.743462|    0.241496|           5|   -0.590590|  5.0000e+01|  5.0000e+01|  5.0000e+01|
|          76|  7.3576e-01|   -4.090500|    1.743420|    0.241486|           5|   -0.419553|  5.0000e+01|  5.0000e+01|  5.0000e+01|
|          77|  7.3763e-01|   -4.096182|    1.743365|    0.241472|           5|   -0.445439|  5.0000e+01|  5.0000e+01|  5.0000e+01|
|          78|  7.3841e-01|   -4.147759|    1.743333|    0.241463|           5|   -0.328233|  5.0000e+01|  5.0000e+01|  5.0000e+01|
|          79|  7.4125e-01|   -4.181490|    1.743270|    0.241447|           5|   -0.406428|  5.0000e+01|  5.0000e+01|  5.0000e+01|
|          80|  7.4036e-01|   -4.185176|    1.743212|    0.241431|           5|   -0.440973|  5.0000e+01|  5.0000e+01|  5.0000e+01|
|          81|  7.4367e-01|   -4.250725|    1.743148|    0.241413|           5|   -0.416453|  5.0000e+01|  5.0000e+01|  5.0000e+01|
|          82|  7.4353e-01|   -4.233884|    1.743125|    0.241407|           5|   -0.334892|  5.0000e+01|  5.0000e+01|  5.0000e+01|
|          83|  7.4665e-01|   -4.223581|    1.743118|    0.241405|           5|   -0.307569|  5.0000e+01|  5.0000e+01|  5.0000e+01|
|          84|  7.4570e-01|   -4.215975|    1.743057|    0.241388|           5|   -0.380225|  5.0000e+01|  5.0000e+01|  5.0000e+01|
|          85|  7.4793e-01|   -4.159923|    1.743010|    0.241374|           5|   -0.368828|  5.0000e+01|  5.0000e+01|  5.0000e+01|
|          86|  7.4738e-01|   -4.153923|    1.742943|    0.241355|           5|   -0.432626|  5.0000e+01|  5.0000e+01|  5.0000e+01|
|          87|  7.5011e-01|   -4.028207|    1.742880|    0.241337|           5|   -0.462373|  5.0000e+01|  5.0000e+01|  5.0000e+01|
|          88|  7.4907e-01|   -4.101308|    1.742821|    0.241321|           5|   -0.425663|  5.0000e+01|  5.0000e+01|  5.0000e+01|
|          89|  7.5146e-01|   -4.093675|    1.742756|    0.241303|           5|   -0.460201|  5.0000e+01|  5.0000e+01|  5.0000e+01|
|          90|  7.5121e-01|   -4.081664|    1.742700|    0.241288|           5|   -0.501792|  5.0000e+01|  5.0000e+01|  5.0000e+01|
|          91|  7.5358e-01|   -4.116797|    1.742651|    0.241275|           5|   -0.400192|  5.0000e+01|  5.0000e+01|  5.0000e+01|
|          92|  7.5273e-01|   -4.076907|    1.742628|    0.241269|           5|   -0.367884|  5.0000e+01|  5.0000e+01|  5.0000e+01|
|          93|  7.5188e-01|   -4.117589|    1.742563|    0.241253|           5|   -0.553153|  5.0000e+01|  5.0000e+01|  5.0000e+01|
|          94|  7.5421e-01|   -4.114600|    1.742504|    0.241238|           5|   -0.515783|  5.0000e+01|  5.0000e+01|  5.0000e+01|
|          95|  7.5331e-01|   -4.098950|    1.742449|    0.241226|           5|   -0.388230|  5.0000e+01|  5.0000e+01|  5.0000e+01|
|          96|  7.5547e-01|   -4.109306|    1.742398|    0.241214|           5|   -0.418303|  5.0000e+01|  5.0000e+01|  5.0000e+01|
|          97|  7.5497e-01|   -4.128576|    1.742335|    0.241201|           5|   -0.464985|  5.0000e+01|  5.0000e+01|  5.0000e+01|
|          98|  7.5408e-01|   -4.088850|    1.742277|    0.241190|           5|   -0.500942|  5.0000e+01|  5.0000e+01|  5.0000e+01|
|          99|  7.5580e-01|   -4.098342|    1.742238|    0.241183|           5|   -0.353590|  5.0000e+01|  5.0000e+01|  5.0000e+01|
|         100|  7.5508e-01|   -4.106706|    1.742208|    0.241178|           5|   -0.383021|  5.0000e+01|  5.0000e+01|  5.0000e+01|
|         101|  7.5449e-01|   -4.175368|    1.742172|    0.241172|           5|   -0.378124|  5.0000e+01|  5.0000e+01|  5.0000e+01|
|         102|  7.5634e-01|   -4.197725|    1.742123|    0.241164|           5|   -0.394500|  5.0000e+01|  5.0000e+01|  5.0000e+01|
|         103|  7.5537e-01|   -4.185052|    1.742074|    0.241157|           5|   -0.405221|  5.0000e+01|  5.0000e+01|  5.0000e+01|
|         104|  7.5665e-01|   -4.221094|    1.742013|    0.241148|           5|   -0.486244|  5.0000e+01|  5.0000e+01|  5.0000e+01|
|         105|  7.5580e-01|   -4.166290|    1.741956|    0.241141|           5|   -0.486978|  5.0000e+01|  5.0000e+01|  5.0000e+01|
|         106|  7.5499e-01|   -4.153502|    1.741891|    0.241132|           5|   -0.538945|  5.0000e+01|  5.0000e+01|  5.0000e+01|
|         107|  7.5635e-01|   -4.153169|    1.741830|    0.241125|           5|   -0.523580|  5.0000e+01|  5.0000e+01|  5.0000e+01|
|         108|  7.5578e-01|   -4.169822|    1.741761|    0.241116|           5|   -0.546732|  5.0000e+01|  5.0000e+01|  5.0000e+01|
|         109|  7.5499e-01|   -4.114456|    1.741710|    0.241109|           5|   -0.471807|  5.0000e+01|  5.0000e+01|  5.0000e+01|
|         110|  7.5682e-01|   -4.178020|    1.741658|    0.241101|           5|   -0.429816|  5.0000e+01|  5.0000e+01|  5.0000e+01|
|         111|  7.5640e-01|   -4.195781|    1.741608|    0.241094|           5|   -0.391371|  5.0000e+01|  5.0000e+01|  5.0000e+01|
|         112|  7.5830e-01|   -4.190258|    1.741570|    0.241088|           5|   -0.357753|  5.0000e+01|  5.0000e+01|  5.0000e+01|
|         113|  7.5907e-01|   -4.185376|    1.741526|    0.241081|           5|   -0.402195|  5.0000e+01|  5.0000e+01|  5.0000e+01|
|         114|  7.5839e-01|   -4.239530|    1.741456|    0.241069|           5|   -0.452525|  5.0000e+01|  5.0000e+01|  5.0000e+01|
|         115|  7.6150e-01|   -4.220677|    1.741385|    0.241057|           5|   -0.519888|  5.0000e+01|  5.0000e+01|  5.0000e+01|
|         116|  7.6045e-01|   -4.214674|    1.741312|    0.241043|           5|   -0.496905|  5.0000e+01|  5.0000e+01|  5.0000e+01|
|         117|  7.6460e-01|   -4.176682|    1.741223|    0.241026|           5|   -0.600574|  5.0000e+01|  5.0000e+01|  5.0000e+01|
|         118|  7.6391e-01|   -4.168903|    1.741141|    0.241009|           5|   -0.486748|  5.0000e+01|  5.0000e+01|  5.0000e+01|
|         119|  7.6416e-01|   -4.157843|    1.741071|    0.240994|           5|   -0.532551|  5.0000e+01|  5.0000e+01|  5.0000e+01|
|         120|  7.6465e-01|   -4.147628|    1.740994|    0.240977|           5|   -0.480533|  5.0000e+01|  5.0000e+01|  5.0000e+01|
|         121|  7.6373e-01|   -4.167774|    1.740926|    0.240961|           5|   -0.407180|  5.0000e+01|  5.0000e+01|  5.0000e+01|
|         122|  7.6616e-01|   -4.148236|    1.740855|    0.240945|           5|   -0.530260|  5.0000e+01|  5.0000e+01|  5.0000e+01|
|         123|  7.6536e-01|   -4.163968|    1.740807|    0.240933|           5|   -0.392950|  5.0000e+01|  5.0000e+01|  5.0000e+01|
|         124|  7.6694e-01|   -4.148061|    1.740753|    0.240920|           5|   -0.473645|  5.0000e+01|  5.0000e+01|  5.0000e+01|
|         125|  7.6848e-01|   -4.010729|    1.740699|    0.240907|           5|   -0.555285|  5.0000e+01|  5.0000e+01|  5.0000e+01|
|         126|  7.6732e-01|   -3.886759|    1.740668|    0.240900|           5|   -0.377175|  5.0000e+01|  5.0000e+01|  5.0000e+01|
|         127|  7.6868e-01|   -4.027400|    1.740606|    0.240885|           5|   -0.559219|  5.0000e+01|  5.0000e+01|  5.0000e+01|
|         128|  7.6754e-01|   -4.104496|    1.740561|    0.240873|           5|   -0.445145|  5.0000e+01|  5.0000e+01|  5.0000e+01|
|         129|  7.6867e-01|   -4.031095|    1.740494|    0.240857|           5|   -0.692043|  5.0000e+01|  5.0000e+01|  5.0000e+01|
|         130|  7.6803e-01|   -4.125816|    1.740444|    0.240845|           5|   -0.509353|  5.0000e+01|  5.0000e+01|  5.0000e+01|
|         131|  7.6791e-01|   -4.092703|    1.740401|    0.240835|           5|   -0.446671|  5.0000e+01|  5.0000e+01|  5.0000e+01|
|         132|  7.6899e-01|   -4.110422|    1.740343|    0.240821|           5|   -0.596521|  5.0000e+01|  5.0000e+01|  5.0000e+01|
|         133|  7.7064e-01|   -4.157932|    1.740320|    0.240816|           5|   -0.504240|  5.0000e+01|  5.0000e+01|  5.0000e+01|
|         134|  7.6998e-01|   -4.193783|    1.740289|    0.240809|           5|   -0.391927|  5.0000e+01|  5.0000e+01|  5.0000e+01|
|         135|  7.6954e-01|   -4.247728|    1.740266|    0.240804|           5|   -0.299383|  5.0000e+01|  5.0000e+01|  5.0000e+01|
|         136|  7.7095e-01|   -4.297624|    1.740212|    0.240792|           5|   -0.443521|  5.0000e+01|  5.0000e+01|  5.0000e+01|
|         137|  7.7019e-01|   -4.205703|    1.740157|    0.240781|           5|   -0.592803|  5.0000e+01|  5.0000e+01|  5.0000e+01|
|         138|  7.6951e-01|   -4.127229|    1.740120|    0.240773|           5|   -0.481387|  5.0000e+01|  5.0000e+01|  5.0000e+01|
|         139|  7.6995e-01|   -4.118450|    1.740079|    0.240766|           5|   -0.397792|  5.0000e+01|  5.0000e+01|  5.0000e+01|
|         140|  7.6925e-01|   -4.077125|    1.740037|    0.240758|           5|   -0.520601|  5.0000e+01|  5.0000e+01|  5.0000e+01|
|         141|  7.7073e-01|   -4.118633|    1.739989|    0.240750|           5|   -0.560844|  5.0000e+01|  5.0000e+01|  5.0000e+01|
|         142|  7.7011e-01|   -4.037565|    1.739951|    0.240743|           5|   -0.603141|  5.0000e+01|  5.0000e+01|  5.0000e+01|
|         143|  7.7160e-01|   -3.970837|    1.739905|    0.240736|           5|   -0.712028|  5.0000e+01|  5.0000e+01|  5.0000e+01|
|         144|  7.7088e-01|   -4.162084|    1.739860|    0.240729|           5|   -0.519710|  5.0000e+01|  5.0000e+01|  5.0000e+01|
|         145|  7.7320e-01|   -4.173646|    1.739822|    0.240723|           5|   -0.556404|  5.0000e+01|  5.0000e+01|  5.0000e+01|
|         146|  7.7313e-01|   -3.969614|    1.739762|    0.240714|           5|   -0.651470|  5.0000e+01|  5.0000e+01|  5.0000e+01|
|         147|  7.7229e-01|   -3.879352|    1.739710|    0.240706|           5|   -0.861886|  5.0000e+01|  5.0000e+01|  5.0000e+01|
|         148|  7.7439e-01|   -4.174373|    1.739664|    0.240698|           5|   -0.593314|  5.0000e+01|  5.0000e+01|  5.0000e+01|
|         149|  7.7374e-01|   -4.305888|    1.739626|    0.240692|           5|   -0.510951|  5.0000e+01|  5.0000e+01|  5.0000e+01|
|         150|  7.7567e-01|   -4.236472|    1.739578|    0.240685|           5|   -0.558932|  5.0000e+01|  5.0000e+01|  5.0000e+01|
|         151|  7.7510e-01|   -4.300996|    1.739526|    0.240676|           5|   -0.627965|  5.0000e+01|  5.0000e+01|  5.0000e+01|
|         152|  7.7591e-01|   -4.254665|    1.739478|    0.240668|           5|   -0.592970|  5.0000e+01|  5.0000e+01|  5.0000e+01|
|         153|  7.7757e-01|   -4.225015|    1.739419|    0.240658|           5|   -0.773960|  5.0000e+01|  5.0000e+01|  5.0000e+01|
|         154|  7.7690e-01|   -4.242617|    1.739358|    0.240648|           5|   -0.798464|  5.0000e+01|  5.0000e+01|  5.0000e+01|
|         155|  7.7794e-01|   -4.303185|    1.739298|    0.240638|           5|   -0.587707|  5.0000e+01|  5.0000e+01|  5.0000e+01|
|         156|  7.7728e-01|   -4.272882|    1.739246|    0.240629|           5|   -0.515614|  5.0000e+01|  5.0000e+01|  5.0000e+01|
|         157|  7.7640e-01|   -4.241472|    1.739179|    0.240619|           5|   -0.500798|  5.0000e+01|  5.0000e+01|  5.0000e+01|
|         158|  7.7744e-01|   -4.168464|    1.739115|    0.240608|           5|   -0.728030|  5.0000e+01|  5.0000e+01|  5.0000e+01|
|         159|  7.7665e-01|   -4.220123|    1.739059|    0.240600|           5|   -0.561504|  5.0000e+01|  5.0000e+01|  5.0000e+01|
|         160|  7.7717e-01|   -4.086796|    1.738999|    0.240590|           5|   -0.633994|  5.0000e+01|  5.0000e+01|  5.0000e+01|
|         161|  7.7687e-01|   -4.189408|    1.738956|    0.240584|           5|   -0.444957|  5.0000e+01|  5.0000e+01|  5.0000e+01|
|         162|  7.7610e-01|   -4.062176|    1.738890|    0.240574|           5|   -0.843165|  5.0000e+01|  5.0000e+01|  5.0000e+01|
|         163|  7.7565e-01|   -4.160817|    1.738824|    0.240565|           5|   -0.811387|  5.0000e+01|  5.0000e+01|  5.0000e+01|
|         164|  7.7626e-01|   -4.243378|    1.738763|    0.240557|           5|   -0.705935|  5.0000e+01|  5.0000e+01|  5.0000e+01|
|         165|  7.7536e-01|   -4.233925|    1.738703|    0.240550|           5|   -0.624509|  5.0000e+01|  5.0000e+01|  5.0000e+01|
|         166|  7.7610e-01|   -4.132702|    1.738653|    0.240544|           5|   -0.644672|  5.0000e+01|  5.0000e+01|  5.0000e+01|
|         167|  7.7552e-01|   -4.199022|    1.738597|    0.240538|           5|   -0.464444|  5.0000e+01|  5.0000e+01|  5.0000e+01|
|         168|  7.7489e-01|   -4.195199|    1.738537|    0.240532|           5|   -0.749217|  5.0000e+01|  5.0000e+01|  5.0000e+01|
|         169|  7.7580e-01|   -4.241655|    1.738482|    0.240526|           5|   -0.609090|  5.0000e+01|  5.0000e+01|  5.0000e+01|
|         170|  7.7502e-01|   -4.170698|    1.738432|    0.240521|           5|   -0.563248|  5.0000e+01|  5.0000e+01|  5.0000e+01|
|         171|  7.7570e-01|   -4.296567|    1.738381|    0.240516|           5|   -0.558889|  5.0000e+01|  5.0000e+01|  5.0000e+01|
|         172|  7.7490e-01|   -4.244326|    1.738334|    0.240512|           5|   -0.588983|  5.0000e+01|  5.0000e+01|  5.0000e+01|
|         173|  7.7397e-01|   -3.937285|    1.738284|    0.240507|           5|   -0.860679|  5.0000e+01|  5.0000e+01|  5.0000e+01|
|         174|  7.7457e-01|   -4.058384|    1.738235|    0.240502|           5|   -0.872377|  5.0000e+01|  5.0000e+01|  5.0000e+01|
|         175|  7.7396e-01|   -4.253099|    1.738190|    0.240497|           5|   -0.607668|  5.0000e+01|  5.0000e+01|  5.0000e+01|
|         176|  7.7321e-01|   -4.224241|    1.738143|    0.240493|           5|   -0.717294|  5.0000e+01|  5.0000e+01|  5.0000e+01|
|         177|  7.7428e-01|   -4.298417|    1.738107|    0.240489|           5|   -0.554729|  5.0000e+01|  5.0000e+01|  5.0000e+01|
|         178|  7.7383e-01|   -4.335997|    1.738087|    0.240487|           5|   -0.394262|  5.0000e+01|  5.0000e+01|  5.0000e+01|
|         179|  7.7339e-01|   -4.307593|    1.738049|    0.240483|           5|   -0.503251|  5.0000e+01|  5.0000e+01|  5.0000e+01|
|         180|  7.7535e-01|   -4.363866|    1.737995|    0.240477|           5|   -0.584915|  5.0000e+01|  5.0000e+01|  5.0000e+01|
|         181|  7.7482e-01|   -4.313752|    1.737949|    0.240472|           5|   -0.770108|  5.0000e+01|  5.0000e+01|  5.0000e+01|
|         182|  7.7628e-01|   -4.429215|    1.737906|    0.240467|           5|   -0.688217|  5.0000e+01|  5.0000e+01|  5.0000e+01|
|         183|  7.7554e-01|   -4.387865|    1.737886|    0.240465|           5|   -0.489136|  5.0000e+01|  5.0000e+01|  5.0000e+01|
|         184|  7.7598e-01|   -4.329682|    1.737848|    0.240461|           5|   -0.626079|  5.0000e+01|  5.0000e+01|  5.0000e+01|
|         185|  7.7633e-01|   -4.438197|    1.737818|    0.240458|           5|   -0.558513|  5.0000e+01|  5.0000e+01|  5.0000e+01|
|         186|  7.7568e-01|   -4.330813|    1.737781|    0.240454|           5|   -0.519004|  5.0000e+01|  5.0000e+01|  5.0000e+01|
|         187|  7.7716e-01|   -4.302603|    1.737744|    0.240450|           5|   -0.594861|  5.0000e+01|  5.0000e+01|  5.0000e+01|
|         188|  7.7658e-01|   -4.193052|    1.737727|    0.240448|           5|   -0.359595|  5.0000e+01|  5.0000e+01|  5.0000e+01|
|         189|  7.7774e-01|   -4.228298|    1.737699|    0.240445|           5|   -0.518800|  5.0000e+01|  5.0000e+01|  5.0000e+01|
|         190|  7.7714e-01|   -4.332053|    1.737662|    0.240441|           5|   -0.601704|  5.0000e+01|  5.0000e+01|  5.0000e+01|
|         191|  7.7829e-01|   -4.378537|    1.737616|    0.240436|           5|   -0.692209|  5.0000e+01|  5.0000e+01|  5.0000e+01|
|         192|  7.7763e-01|   -4.412461|    1.737579|    0.240433|           5|   -0.566747|  5.0000e+01|  5.0000e+01|  5.0000e+01|
|         193|  7.7781e-01|   -4.264218|    1.737540|    0.240430|           5|   -0.625722|  5.0000e+01|  5.0000e+01|  5.0000e+01|
|         194|  7.7799e-01|   -4.259446|    1.737498|    0.240426|           5|   -0.693858|  5.0000e+01|  5.0000e+01|  5.0000e+01|
|         195|  7.7735e-01|   -4.372503|    1.737449|    0.240422|           5|   -0.708295|  5.0000e+01|  5.0000e+01|  5.0000e+01|
|         196|  7.7815e-01|   -4.448328|    1.737407|    0.240419|           5|   -0.717264|  5.0000e+01|  5.0000e+01|  5.0000e+01|
|         197|  7.7752e-01|   -4.404411|    1.737364|    0.240415|           5|   -0.763275|  5.0000e+01|  5.0000e+01|  5.0000e+01|
|         198|  7.7841e-01|   -4.451084|    1.737316|    0.240412|           5|   -0.633301|  5.0000e+01|  5.0000e+01|  5.0000e+01|
|         199|  7.7801e-01|   -4.387895|    1.737296|    0.240410|           5|   -0.436336|  5.0000e+01|  5.0000e+01|  5.0000e+01|
|         200|  7.7841e-01|   -4.362207|    1.737281|    0.240409|           5|   -0.425525|  5.0000e+01|  5.0000e+01|  5.0000e+01|
|         201|  7.7926e-01|   -4.489882|    1.737231|    0.240406|           5|   -0.668525|  5.0000e+01|  5.0000e+01|  5.0000e+01|
|         202|  7.7877e-01|   -4.524114|    1.737184|    0.240402|           5|   -0.627163|  5.0000e+01|  5.0000e+01|  5.0000e+01|
|         203|  7.7970e-01|   -4.451073|    1.737129|    0.240399|           5|   -0.822437|  5.0000e+01|  5.0000e+01|  5.0000e+01|
|         204|  7.7901e-01|   -4.388369|    1.737079|    0.240395|           5|   -0.714307|  5.0000e+01|  5.0000e+01|  5.0000e+01|
|         205|  7.7975e-01|   -4.441091|    1.737020|    0.240391|           5|   -0.681422|  5.0000e+01|  5.0000e+01|  5.0000e+01|
|         206|  7.7894e-01|   -4.347199|    1.736971|    0.240388|           5|   -0.642198|  5.0000e+01|  5.0000e+01|  5.0000e+01|
|         207|  7.7861e-01|   -4.400744|    1.736909|    0.240384|           5|   -0.732699|  5.0000e+01|  5.0000e+01|  5.0000e+01|
|         208|  7.7890e-01|   -4.442540|    1.736851|    0.240380|           5|   -0.805667|  5.0000e+01|  5.0000e+01|  5.0000e+01|
|         209|  7.7817e-01|   -4.354971|    1.736793|    0.240376|           5|   -0.819973|  5.0000e+01|  5.0000e+01|  5.0000e+01|
|         210|  7.7890e-01|   -4.505096|    1.736733|    0.240372|           5|   -0.679436|  5.0000e+01|  5.0000e+01|  5.0000e+01|
|         211|  7.7849e-01|   -4.520538|    1.736672|    0.240367|           5|   -0.646222|  5.0000e+01|  5.0000e+01|  5.0000e+01|
|         212|  7.7904e-01|   -4.574950|    1.736604|    0.240361|           5|   -0.627808|  5.0000e+01|  5.0000e+01|  5.0000e+01|
|         213|  7.7888e-01|   -4.531161|    1.736545|    0.240356|           5|   -0.606615|  5.0000e+01|  5.0000e+01|  5.0000e+01|
|         214|  7.7824e-01|   -4.445760|    1.736492|    0.240351|           5|   -0.566930|  5.0000e+01|  5.0000e+01|  5.0000e+01|
|         215|  7.7894e-01|   -4.321504|    1.736446|    0.240347|           5|   -0.485418|  5.0000e+01|  5.0000e+01|  5.0000e+01|
|         216|  7.7828e-01|   -4.369575|    1.736397|    0.240343|           5|   -0.624676|  5.0000e+01|  5.0000e+01|  5.0000e+01|
|         217|  7.7777e-01|   -4.416355|    1.736331|    0.240337|           5|   -0.779632|  5.0000e+01|  5.0000e+01|  5.0000e+01|
|         218|  7.7720e-01|   -4.531399|    1.736271|    0.240331|           5|   -0.760407|  5.0000e+01|  5.0000e+01|  5.0000e+01|
|         219|  7.7798e-01|   -4.593916|    1.736227|    0.240327|           5|   -0.623125|  5.0000e+01|  5.0000e+01|  5.0000e+01|
|         220|  7.7731e-01|   -4.502423|    1.736167|    0.240322|           5|   -0.838016|  5.0000e+01|  5.0000e+01|  5.0000e+01|
|         221|  7.7857e-01|   -4.539206|    1.736108|    0.240317|           5|   -0.794999|  5.0000e+01|  5.0000e+01|  5.0000e+01|
|         222|  7.7786e-01|   -4.545422|    1.736063|    0.240313|           5|   -0.773283|  5.0000e+01|  5.0000e+01|  5.0000e+01|
|         223|  7.7736e-01|   -4.521262|    1.736021|    0.240310|           5|   -0.545348|  5.0000e+01|  5.0000e+01|  5.0000e+01|
|         224|  7.7855e-01|   -4.608442|    1.736027|    0.240310|           5|   -0.310319|  5.0000e+01|  5.0000e+01|  5.0000e+01|
|         225|  7.7823e-01|   -4.667363|    1.735978|    0.240307|           5|   -0.511806|  5.0000e+01|  5.0000e+01|  5.0000e+01|
|         226|  7.7929e-01|   -4.737416|    1.735927|    0.240304|           5|   -0.643009|  5.0000e+01|  5.0000e+01|  5.0000e+01|
|         227|  7.7896e-01|   -4.673361|    1.735879|    0.240301|           5|   -0.722139|  5.0000e+01|  5.0000e+01|  5.0000e+01|
|         228|  7.7927e-01|   -4.707012|    1.735828|    0.240299|           5|   -0.589484|  5.0000e+01|  5.0000e+01|  5.0000e+01|
|         229|  7.7971e-01|   -4.719577|    1.735781|    0.240297|           5|   -0.679240|  5.0000e+01|  5.0000e+01|  5.0000e+01|
|         230|  7.7950e-01|   -4.676377|    1.735728|    0.240295|           5|   -0.601332|  5.0000e+01|  5.0000e+01|  5.0000e+01|
|         231|  7.7978e-01|   -4.478844|    1.735678|    0.240293|           5|   -0.869356|  5.0000e+01|  5.0000e+01|  5.0000e+01|
|         232|  7.7998e-01|   -4.558611|    1.735627|    0.240291|           5|   -0.843606|  5.0000e+01|  5.0000e+01|  5.0000e+01|
|         233|  7.7992e-01|   -4.541919|    1.735585|    0.240289|           5|   -0.731124|  5.0000e+01|  5.0000e+01|  5.0000e+01|
|         234|  7.7949e-01|   -4.545580|    1.735533|    0.240287|           5|   -0.908987|  5.0000e+01|  5.0000e+01|  5.0000e+01|
|         235|  7.8058e-01|   -4.641285|    1.735484|    0.240285|           5|   -0.788455|  5.0000e+01|  5.0000e+01|  5.0000e+01|
|         236|  7.8045e-01|   -4.433014|    1.735436|    0.240284|           5|   -0.702939|  5.0000e+01|  5.0000e+01|  5.0000e+01|
|         237|  7.8076e-01|   -4.646120|    1.735383|    0.240281|           5|   -0.883615|  5.0000e+01|  5.0000e+01|  5.0000e+01|
|         238|  7.8028e-01|   -4.583184|    1.735329|    0.240280|           5|   -0.559077|  5.0000e+01|  5.0000e+01|  5.0000e+01|
|         239|  7.8111e-01|   -4.555539|    1.735277|    0.240278|           5|   -0.857925|  5.0000e+01|  5.0000e+01|  5.0000e+01|
|         240|  7.8052e-01|   -4.602855|    1.735219|    0.240276|           5|   -0.977833|  5.0000e+01|  5.0000e+01|  5.0000e+01|
|         241|  7.8033e-01|   -4.585597|    1.735163|    0.240274|           5|   -0.876794|  5.0000e+01|  5.0000e+01|  5.0000e+01|
|         242|  7.8053e-01|   -4.567816|    1.735108|    0.240272|           5|   -0.799349|  5.0000e+01|  5.0000e+01|  5.0000e+01|
|         243|  7.7973e-01|   -4.583302|    1.735053|    0.240270|           5|   -0.762344|  5.0000e+01|  5.0000e+01|  5.0000e+01|
|         244|  7.8010e-01|   -4.579025|    1.734994|    0.240267|           5|   -0.707250|  5.0000e+01|  5.0000e+01|  5.0000e+01|
|         245|  7.8000e-01|   -4.633004|    1.734931|    0.240265|           5|   -0.803881|  5.0000e+01|  5.0000e+01|  5.0000e+01|
|         246|  7.7954e-01|   -4.660840|    1.734877|    0.240263|           5|   -0.725091|  5.0000e+01|  5.0000e+01|  5.0000e+01|
|         247|  7.7914e-01|   -4.632532|    1.734839|    0.240261|           5|   -0.582999|  5.0000e+01|  5.0000e+01|  5.0000e+01|
|         248|  7.7967e-01|   -4.556918|    1.734780|    0.240258|           5|   -0.730761|  5.0000e+01|  5.0000e+01|  5.0000e+01|
|         249|  7.7912e-01|   -4.535292|    1.734715|    0.240256|           5|   -0.652235|  5.0000e+01|  5.0000e+01|  5.0000e+01|
|         250|  7.7978e-01|   -4.562095|    1.734646|    0.240253|           5|   -0.670079|  5.0000e+01|  5.0000e+01|  5.0000e+01|
|         251|  7.7916e-01|   -4.593846|    1.734579|    0.240249|           5|   -0.875873|  5.0000e+01|  5.0000e+01|  5.0000e+01|
|         252|  7.7877e-01|   -4.632612|    1.734518|    0.240246|           5|   -0.808050|  5.0000e+01|  5.0000e+01|  5.0000e+01|
|         253|  7.7940e-01|   -4.681528|    1.734453|    0.240242|           5|   -0.698473|  5.0000e+01|  5.0000e+01|  5.0000e+01|
|         254|  7.7907e-01|   -4.654150|    1.734424|    0.240241|           5|   -0.610227|  5.0000e+01|  5.0000e+01|  5.0000e+01|
|         255|  7.7980e-01|   -4.638434|    1.734376|    0.240237|           5|   -0.605378|  5.0000e+01|  5.0000e+01|  5.0000e+01|
|         256|  7.7948e-01|   -4.622332|    1.734349|    0.240236|           5|   -0.419404|  5.0000e+01|  5.0000e+01|  5.0000e+01|
|         257|  7.7920e-01|   -4.727294|    1.734305|    0.240233|           5|   -0.598236|  5.0000e+01|  5.0000e+01|  5.0000e+01|
|         258|  7.7998e-01|   -4.762806|    1.734288|    0.240232|           5|   -0.407713|  5.0000e+01|  5.0000e+01|  5.0000e+01|
|         259|  7.7970e-01|   -4.741042|    1.734267|    0.240230|           5|   -0.539148|  5.0000e+01|  5.0000e+01|  5.0000e+01|
|         260|  7.8044e-01|   -4.749396|    1.734219|    0.240227|           5|   -0.365656|  5.0000e+01|  5.0000e+01|  5.0000e+01|
|         261|  7.7995e-01|   -4.718561|    1.734154|    0.240222|           5|   -1.018169|  5.0000e+01|  5.0000e+01|  5.0000e+01|
|         262|  7.7948e-01|   -4.725510|    1.734093|    0.240218|           5|   -1.000334|  5.0000e+01|  5.0000e+01|  5.0000e+01|
|         263|  7.7999e-01|   -4.765363|    1.734029|    0.240214|           5|   -0.905667|  5.0000e+01|  5.0000e+01|  5.0000e+01|
|         264|  7.7952e-01|   -4.763450|    1.733969|    0.240210|           5|   -0.926023|  5.0000e+01|  5.0000e+01|  5.0000e+01|
|         265|  7.8002e-01|   -4.739023|    1.733915|    0.240206|           5|   -0.695824|  5.0000e+01|  5.0000e+01|  5.0000e+01|
|         266|  7.7972e-01|   -4.764810|    1.733890|    0.240205|           5|   -0.436709|  5.0000e+01|  5.0000e+01|  5.0000e+01|
|         267|  7.7955e-01|   -4.773242|    1.733848|    0.240202|           5|   -0.347403|  5.0000e+01|  5.0000e+01|  5.0000e+01|
|         268|  7.7983e-01|   -4.740379|    1.733788|    0.240199|           5|   -0.735232|  5.0000e+01|  5.0000e+01|  5.0000e+01|
|         269|  7.7927e-01|   -4.619036|    1.733727|    0.240195|           5|   -0.879503|  5.0000e+01|  5.0000e+01|  5.0000e+01|
|         270|  7.7881e-01|   -4.635232|    1.733687|    0.240192|           5|   -0.760958|  5.0000e+01|  5.0000e+01|  5.0000e+01|
|         271|  7.7930e-01|   -4.668490|    1.733624|    0.240189|           5|   -0.666913|  5.0000e+01|  5.0000e+01|  5.0000e+01|
|         272|  7.7880e-01|   -4.622134|    1.733563|    0.240185|           5|   -0.750764|  5.0000e+01|  5.0000e+01|  5.0000e+01|
|         273|  7.7825e-01|   -4.641013|    1.733504|    0.240181|           5|   -0.688348|  5.0000e+01|  5.0000e+01|  5.0000e+01|
|         274|  7.7921e-01|   -4.647302|    1.733442|    0.240178|           5|   -0.764940|  5.0000e+01|  5.0000e+01|  5.0000e+01|
|         275|  7.7895e-01|   -4.695623|    1.733398|    0.240175|           5|   -0.572483|  5.0000e+01|  5.0000e+01|  5.0000e+01|
|         276|  7.7976e-01|   -4.778071|    1.733352|    0.240172|           5|   -0.675617|  5.0000e+01|  5.0000e+01|  5.0000e+01|
|         277|  7.7931e-01|   -4.622428|    1.733292|    0.240168|           5|   -0.728520|  5.0000e+01|  5.0000e+01|  5.0000e+01|
|         278|  7.7945e-01|   -4.639879|    1.733232|    0.240164|           5|   -0.638022|  5.0000e+01|  5.0000e+01|  5.0000e+01|
|         279|  7.7985e-01|   -4.610797|    1.733168|    0.240160|           5|   -0.937830|  5.0000e+01|  5.0000e+01|  5.0000e+01|
|         280|  7.7931e-01|   -4.625940|    1.733108|    0.240156|           5|   -0.836162|  5.0000e+01|  5.0000e+01|  5.0000e+01|
|         281|  7.8022e-01|   -4.642844|    1.733054|    0.240152|           5|   -0.820011|  5.0000e+01|  5.0000e+01|  5.0000e+01|
|         282|  7.7981e-01|   -4.636327|    1.732989|    0.240148|           5|   -0.961457|  5.0000e+01|  5.0000e+01|  5.0000e+01|
|         283|  7.7993e-01|   -4.731323|    1.732925|    0.240143|           5|   -1.030784|  5.0000e+01|  5.0000e+01|  5.0000e+01|
|         284|  7.8018e-01|   -4.790837|    1.732871|    0.240139|           5|   -0.887647|  5.0000e+01|  5.0000e+01|  5.0000e+01|
|         285|  7.8028e-01|   -4.733715|    1.732805|    0.240134|           5|   -0.949852|  5.0000e+01|  5.0000e+01|  5.0000e+01|
|         286|  7.8009e-01|   -4.778936|    1.732740|    0.240129|           5|   -0.848599|  5.0000e+01|  5.0000e+01|  5.0000e+01|
|         287|  7.8063e-01|   -4.740954|    1.732674|    0.240124|           5|   -0.778591|  5.0000e+01|  5.0000e+01|  5.0000e+01|
|         288|  7.8032e-01|   -4.657354|    1.732609|    0.240118|           5|   -0.700779|  5.0000e+01|  5.0000e+01|  5.0000e+01|
|         289|  7.8075e-01|   -4.694090|    1.732539|    0.240112|           5|   -0.887264|  5.0000e+01|  5.0000e+01|  5.0000e+01|
|         290|  7.8030e-01|   -4.744475|    1.732451|    0.240104|           5|   -0.533411|  5.0000e+01|  5.0000e+01|  5.0000e+01|
|         291|  7.8071e-01|   -4.482471|    1.732388|    0.240098|           5|   -1.211258|  5.0000e+01|  5.0000e+01|  5.0000e+01|
|         292|  7.8009e-01|   -4.672830|    1.732319|    0.240092|           5|   -1.022945|  5.0000e+01|  5.0000e+01|  5.0000e+01|
|         293|  7.8039e-01|   -4.641720|    1.732257|    0.240086|           5|   -0.697340|  5.0000e+01|  5.0000e+01|  5.0000e+01|
|         294|  7.8008e-01|   -4.558124|    1.732202|    0.240081|           5|   -0.485214|  5.0000e+01|  5.0000e+01|  5.0000e+01|
|         295|  7.8083e-01|   -4.610972|    1.732196|    0.240081|           5|   -0.266726|  5.0000e+01|  5.0000e+01|  5.0000e+01|
|         296|  7.8047e-01|   -4.609810|    1.732193|    0.240081|           5|   -0.317004|  5.0000e+01|  5.0000e+01|  5.0000e+01|
|         297|  7.8058e-01|   -4.627726|    1.732129|    0.240075|           5|   -0.470929|  5.0000e+01|  5.0000e+01|  5.0000e+01|
|         298|  7.8079e-01|   -4.526299|    1.732067|    0.240069|           5|   -0.906604|  5.0000e+01|  5.0000e+01|  5.0000e+01|
|         299|  7.8064e-01|   -4.648456|    1.732001|    0.240063|           5|   -0.958591|  5.0000e+01|  5.0000e+01|  5.0000e+01|
|         300|  7.8057e-01|   -4.696272|    1.731939|    0.240058|           5|   -0.915204|  5.0000e+01|  5.0000e+01|  5.0000e+01|
|         301|  7.8048e-01|   -4.633986|    1.731869|    0.240052|           5|   -0.858635|  5.0000e+01|  5.0000e+01|  5.0000e+01|
|         302|  7.8082e-01|   -4.669262|    1.731812|    0.240048|           5|   -0.751911|  5.0000e+01|  5.0000e+01|  5.0000e+01|
|         303|  7.8027e-01|   -4.728171|    1.731769|    0.240044|           5|   -0.489546|  5.0000e+01|  5.0000e+01|  5.0000e+01|
|         304|  7.8059e-01|   -4.505616|    1.731710|    0.240040|           5|   -0.825626|  5.0000e+01|  5.0000e+01|  5.0000e+01|
|         305|  7.8012e-01|   -4.585797|    1.731646|    0.240035|           5|   -0.882586|  5.0000e+01|  5.0000e+01|  5.0000e+01|
|         306|  7.8073e-01|   -4.725754|    1.731581|    0.240030|           5|   -0.813302|  5.0000e+01|  5.0000e+01|  5.0000e+01|
|         307|  7.8027e-01|   -4.791541|    1.731522|    0.240026|           5|   -0.799726|  5.0000e+01|  5.0000e+01|  5.0000e+01|
|         308|  7.7996e-01|   -4.694122|    1.731463|    0.240022|           5|   -0.865311|  5.0000e+01|  5.0000e+01|  5.0000e+01|
|         309|  7.8021e-01|   -4.685838|    1.731408|    0.240018|           5|   -0.593953|  5.0000e+01|  5.0000e+01|  5.0000e+01|
|         310|  7.7994e-01|   -4.688273|    1.731372|    0.240015|           5|   -0.393359|  5.0000e+01|  5.0000e+01|  5.0000e+01|
|         311|  7.8063e-01|   -4.710663|    1.731376|    0.240015|           5|   -0.582158|  5.0000e+01|  5.0000e+01|  5.0000e+01|
|         312|  7.8026e-01|   -4.675640|    1.731311|    0.240010|           5|   -0.568503|  5.0000e+01|  5.0000e+01|  5.0000e+01|
|         313|  7.7987e-01|   -4.669447|    1.731255|    0.240006|           5|   -0.615855|  5.0000e+01|  5.0000e+01|  5.0000e+01|
|         314|  7.8027e-01|   -4.607617|    1.731201|    0.239992|           5|   -0.816432|  5.0000e+01|  5.0000e+01|  5.0000e+01|
|         315|  7.7986e-01|   -4.590597|    1.731152|    0.239992|           5|   -0.688568|  5.0000e+01|  5.0000e+01|  5.0000e+01|
|         316|  7.7955e-01|   -4.580605|    1.731116|    0.239992|           5|   -0.536145|  5.0000e+01|  5.0000e+01|  5.0000e+01|
|         317|  7.8009e-01|   -4.722878|    1.731053|    0.239989|           5|   -0.772219|  5.0000e+01|  5.0000e+01|  5.0000e+01|
|         318|  7.7958e-01|   -4.699428|    1.730998|    0.239984|           5|   -0.682561|  5.0000e+01|  5.0000e+01|  5.0000e+01|
|         319|  7.7995e-01|   -4.575611|    1.730958|    0.239980|           5|   -0.458217|  5.0000e+01|  5.0000e+01|  5.0000e+01|
|         320|  7.7964e-01|   -4.512983|    1.730923|    0.239977|           5|   -0.391574|  5.0000e+01|  5.0000e+01|  5.0000e+01|
|         321|  7.8028e-01|   -4.554936|    1.730863|    0.239972|           5|   -0.585527|  5.0000e+01|  5.0000e+01|  5.0000e+01|
|         322|  7.7986e-01|   -4.736689|    1.730800|    0.239966|           5|   -0.928644|  5.0000e+01|  5.0000e+01|  5.0000e+01|
|         323|  7.7947e-01|   -4.635409|    1.730743|    0.239961|           5|   -0.924629|  5.0000e+01|  5.0000e+01|  5.0000e+01|
|         324|  7.7908e-01|   -4.669952|    1.730681|    0.239955|           5|   -0.768444|  5.0000e+01|  5.0000e+01|  5.0000e+01|
|         325|  7.7947e-01|   -4.646999|    1.730620|    0.239949|           5|   -0.810445|  5.0000e+01|  5.0000e+01|  5.0000e+01|
|         326|  7.7897e-01|   -4.611577|    1.730562|    0.239944|           5|   -0.671935|  5.0000e+01|  5.0000e+01|  5.0000e+01|
|         327|  7.7932e-01|   -4.533101|    1.730505|    0.239938|           5|   -0.613796|  5.0000e+01|  5.0000e+01|  5.0000e+01|
|         328|  7.7957e-01|   -4.508494|    1.730468|    0.239935|           5|   -0.500692|  5.0000e+01|  5.0000e+01|  5.0000e+01|
|         329|  7.7931e-01|   -4.533201|    1.730417|    0.239931|           5|   -0.519083|  5.0000e+01|  5.0000e+01|  5.0000e+01|
|         330|  7.7996e-01|   -4.662521|    1.730354|    0.239925|           5|   -0.717493|  5.0000e+01|  5.0000e+01|  5.0000e+01|
|         331|  7.7958e-01|   -4.525422|    1.730304|    0.239921|           5|   -0.575758|  5.0000e+01|  5.0000e+01|  5.0000e+01|
|         332|  7.8051e-01|   -4.592543|    1.730309|    0.239922|           5|   -0.349802|  5.0000e+01|  5.0000e+01|  5.0000e+01|
|         333|  7.8011e-01|   -4.605162|    1.730307|    0.239921|           5|   -0.267448|  5.0000e+01|  5.0000e+01|  5.0000e+01|
|         334|  7.7980e-01|   -4.604908|    1.730307|    0.239921|           5|   -0.269434|  5.0000e+01|  5.0000e+01|  5.0000e+01|
|         335|  7.8067e-01|   -4.615501|    1.730301|    0.239921|           5|   -0.273569|  5.0000e+01|  5.0000e+01|  5.0000e+01|
|         336|  7.8033e-01|   -4.613076|    1.730248|    0.239916|           5|   -0.554255|  5.0000e+01|  5.0000e+01|  5.0000e+01|
|         337|  7.8094e-01|   -4.563164|    1.730189|    0.239912|           5|   -0.593058|  5.0000e+01|  5.0000e+01|  5.0000e+01|
|         338|  7.8068e-01|   -4.548796|    1.730142|    0.239908|           5|   -0.584445|  5.0000e+01|  5.0000e+01|  5.0000e+01|
|         339|  7.8103e-01|   -4.594939|    1.730078|    0.239903|           5|   -0.756318|  5.0000e+01|  5.0000e+01|  5.0000e+01|
|         340|  7.8049e-01|   -4.714171|    1.730016|    0.239898|           5|   -0.676663|  5.0000e+01|  5.0000e+01|  5.0000e+01|
|         341|  7.8080e-01|   -4.529203|    1.729963|    0.239894|           5|   -0.931064|  5.0000e+01|  5.0000e+01|  5.0000e+01|
|         342|  7.8037e-01|   -4.625555|    1.729904|    0.239890|           5|   -0.793204|  5.0000e+01|  5.0000e+01|  5.0000e+01|
|         343|  7.8056e-01|   -4.644731|    1.729845|    0.239885|           5|   -0.930229|  5.0000e+01|  5.0000e+01|  5.0000e+01|
|         344|  7.8044e-01|   -4.627790|    1.729784|    0.239879|           5|   -0.934916|  5.0000e+01|  5.0000e+01|  5.0000e+01|
|         345|  7.8032e-01|   -4.640867|    1.729729|    0.239874|           5|   -0.811333|  5.0000e+01|  5.0000e+01|  5.0000e+01|
|         346|  7.8045e-01|   -4.613651|    1.729679|    0.239869|           5|   -0.763117|  5.0000e+01|  5.0000e+01|  5.0000e+01|
|         347|  7.8000e-01|   -4.655553|    1.729625|    0.239863|           5|   -0.751560|  5.0000e+01|  5.0000e+01|  5.0000e+01|
|         348|  7.8029e-01|   -4.627059|    1.729568|    0.239857|           5|   -0.747555|  5.0000e+01|  5.0000e+01|  5.0000e+01|
|         349|  7.7983e-01|   -4.609372|    1.729509|    0.239850|           5|   -0.786317|  5.0000e+01|  5.0000e+01|  5.0000e+01|
|         350|  7.7936e-01|   -4.608144|    1.729456|    0.239843|           5|   -0.697788|  5.0000e+01|  5.0000e+01|  5.0000e+01|
|         351|  7.7971e-01|   -4.549897|    1.729397|    0.239836|           5|   -0.631467|  5.0000e+01|  5.0000e+01|  5.0000e+01|
|         352|  7.7942e-01|   -4.535863|    1.729376|    0.239834|           5|   -0.428314|  5.0000e+01|  5.0000e+01|  5.0000e+01|
|         353|  7.7987e-01|   -4.662530|    1.729319|    0.239827|           5|   -0.764344|  5.0000e+01|  5.0000e+01|  5.0000e+01|
|         354|  7.7941e-01|   -4.585303|    1.729267|    0.239821|           5|   -1.019598|  5.0000e+01|  5.0000e+01|  5.0000e+01|
|         355|  7.7908e-01|   -4.686670|    1.729225|    0.239817|           5|   -0.737055|  5.0000e+01|  5.0000e+01|  5.0000e+01|
|         356|  7.7943e-01|   -4.668724|    1.729159|    0.239809|           5|   -0.653906|  5.0000e+01|  5.0000e+01|  5.0000e+01|
|         357|  7.7900e-01|   -4.580806|    1.729108|    0.239803|           5|   -0.833063|  5.0000e+01|  5.0000e+01|  5.0000e+01|
|         358|  7.7935e-01|   -4.565769|    1.729056|    0.239798|           5|   -0.910022|  5.0000e+01|  5.0000e+01|  5.0000e+01|
|         359|  7.7888e-01|   -4.574067|    1.729015|    0.239793|           5|   -0.693903|  5.0000e+01|  5.0000e+01|  5.0000e+01|
|         360|  7.7932e-01|   -4.522176|    1.728965|    0.239787|           5|   -0.838869|  5.0000e+01|  5.0000e+01|  5.0000e+01|
|         361|  7.7896e-01|   -4.672907|    1.728915|    0.239781|           5|   -0.843252|  5.0000e+01|  5.0000e+01|  5.0000e+01|
|         362|  7.7869e-01|   -4.629953|    1.728864|    0.239775|           5|   -0.698716|  5.0000e+01|  5.0000e+01|  5.0000e+01|
|         363|  7.7896e-01|   -4.654206|    1.728814|    0.239769|           5|   -0.616859|  5.0000e+01|  5.0000e+01|  5.0000e+01|
|         364|  7.7854e-01|   -4.593819|    1.728764|    0.239763|           5|   -0.644044|  5.0000e+01|  5.0000e+01|  5.0000e+01|
|         365|  7.7870e-01|   -4.538797|    1.728729|    0.239759|           5|   -0.485391|  5.0000e+01|  5.0000e+01|  5.0000e+01|
|         366|  7.7860e-01|   -4.514940|    1.728680|    0.239753|           5|   -0.628971|  5.0000e+01|  5.0000e+01|  5.0000e+01|
|         367|  7.7826e-01|   -4.608300|    1.728633|    0.239747|           5|   -0.686250|  5.0000e+01|  5.0000e+01|  5.0000e+01|
|         368|  7.7803e-01|   -4.626047|    1.728622|    0.239746|           5|   -0.338926|  5.0000e+01|  5.0000e+01|  5.0000e+01|
|         369|  7.7865e-01|   -4.671696|    1.728586|    0.239742|           5|   -0.303115|  5.0000e+01|  5.0000e+01|  5.0000e+01|
|         370|  7.7829e-01|   -4.506137|    1.728534|    0.239736|           5|   -0.913381|  5.0000e+01|  5.0000e+01|  5.0000e+01|
|         371|  7.7872e-01|   -4.788930|    1.728485|    0.239730|           5|   -0.874193|  5.0000e+01|  5.0000e+01|  5.0000e+01|
|         372|  7.7865e-01|   -4.707687|    1.728428|    0.239723|           5|   -0.809158|  5.0000e+01|  5.0000e+01|  5.0000e+01|
|         373|  7.7824e-01|   -4.633247|    1.728377|    0.239717|           5|   -0.838564|  5.0000e+01|  5.0000e+01|  5.0000e+01|
|         374|  7.7868e-01|   -4.601738|    1.728328|    0.239712|           5|   -0.766518|  5.0000e+01|  5.0000e+01|  5.0000e+01|
|         375|  7.7828e-01|   -4.585513|    1.728283|    0.239707|           5|   -0.672383|  5.0000e+01|  5.0000e+01|  5.0000e+01|
|         376|  7.7793e-01|   -4.583438|    1.728229|    0.239701|           5|   -0.788873|  5.0000e+01|  5.0000e+01|  5.0000e+01|
|         377|  7.7862e-01|   -4.576493|    1.728184|    0.239696|           5|   -0.740951|  5.0000e+01|  5.0000e+01|  5.0000e+01|
|         378|  7.7842e-01|   -4.678064|    1.728147|    0.239691|           5|   -0.741747|  5.0000e+01|  5.0000e+01|  5.0000e+01|
|         379|  7.7903e-01|   -4.749631|    1.728119|    0.239688|           5|   -0.352710|  5.0000e+01|  5.0000e+01|  5.0000e+01|
|         380|  7.7863e-01|   -4.777101|    1.728067|    0.239683|           5|   -0.781757|  5.0000e+01|  5.0000e+01|  5.0000e+01|
|         381|  7.7877e-01|   -4.717003|    1.728012|    0.239677|           5|   -0.844290|  5.0000e+01|  5.0000e+01|  5.0000e+01|
|         382|  7.7834e-01|   -4.572008|    1.727962|    0.239672|           5|   -0.896759|  5.0000e+01|  5.0000e+01|  5.0000e+01|
|         383|  7.7870e-01|   -4.657817|    1.727915|    0.239667|           5|   -0.809770|  5.0000e+01|  5.0000e+01|  5.0000e+01|
|         384|  7.7829e-01|   -4.631631|    1.727863|    0.239662|           5|   -0.786507|  5.0000e+01|  5.0000e+01|  5.0000e+01|
|         385|  7.7786e-01|   -4.617760|    1.727817|    0.239657|           5|   -0.763516|  5.0000e+01|  5.0000e+01|  5.0000e+01|
|         386|  7.7822e-01|   -4.625276|    1.727772|    0.239653|           5|   -0.689969|  5.0000e+01|  5.0000e+01|  5.0000e+01|
|         387|  7.7797e-01|   -4.535651|    1.727729|    0.239648|           5|   -0.535621|  5.0000e+01|  5.0000e+01|  5.0000e+01|
|         388|  7.7834e-01|   -4.567146|    1.727667|    0.239641|           5|   -0.390916|  5.0000e+01|  5.0000e+01|  5.0000e+01|
|         389|  7.7816e-01|   -4.607087|    1.727607|    0.239633|           5|   -0.395300|  5.0000e+01|  5.0000e+01|  5.0000e+01|
|         390|  7.7868e-01|   -4.622440|    1.727559|    0.239626|           5|   -0.462104|  5.0000e+01|  5.0000e+01|  5.0000e+01|
|         391|  7.7832e-01|   -4.670026|    1.727508|    0.239619|           5|   -0.782563|  5.0000e+01|  5.0000e+01|  5.0000e+01|
|         392|  7.7843e-01|   -4.629630|    1.727457|    0.239611|           5|   -0.855519|  5.0000e+01|  5.0000e+01|  5.0000e+01|
|         393|  7.7826e-01|   -4.580221|    1.727410|    0.239604|           5|   -0.809397|  5.0000e+01|  5.0000e+01|  5.0000e+01|
|         394|  7.7785e-01|   -4.604728|    1.727359|    0.239595|           5|   -0.859671|  5.0000e+01|  5.0000e+01|  5.0000e+01|
|         395|  7.7812e-01|   -4.622192|    1.727321|    0.239589|           5|   -0.772829|  5.0000e+01|  5.0000e+01|  5.0000e+01|
|         396|  7.7779e-01|   -4.522636|    1.727276|    0.239582|           5|   -0.825377|  5.0000e+01|  5.0000e+01|  5.0000e+01|
|         397|  7.7755e-01|   -4.713047|    1.727279|    0.239583|           5|   -0.677886|  5.0000e+01|  5.0000e+01|  5.0000e+01|
|         398|  7.7791e-01|   -4.674938|    1.727231|    0.239575|           5|   -0.706035|  5.0000e+01|  5.0000e+01|  5.0000e+01|
|         399|  7.7753e-01|   -4.735889|    1.727187|    0.239568|           5|   -0.849300|  5.0000e+01|  5.0000e+01|  5.0000e+01|
|         400|  7.7719e-01|   -4.652669|    1.727147|    0.239563|           5|   -0.836572|  5.0000e+01|  5.0000e+01|  5.0000e+01|
|         401|  7.7696e-01|   -4.637542|    1.727105|    0.239557|           5|   -0.740822|  5.0000e+01|  5.0000e+01|  5.0000e+01|
|         402|  7.7724e-01|   -4.696812|    1.727058|    0.239550|           5|   -0.810268|  5.0000e+01|  5.0000e+01|  5.0000e+01|
|         403|  7.7683e-01|   -4.713583|    1.727013|    0.239545|           5|   -0.880488|  5.0000e+01|  5.0000e+01|  5.0000e+01|
|         404|  7.7721e-01|   -4.669405|    1.727004|    0.239544|           5|   -0.615475|  5.0000e+01|  5.0000e+01|  5.0000e+01|
|         405|  7.7683e-01|   -4.663525|    1.726969|    0.239540|           5|   -0.407881|  5.0000e+01|  5.0000e+01|  5.0000e+01|
|         406|  7.7656e-01|   -4.650035|    1.726935|    0.239536|           5|   -0.552271|  5.0000e+01|  5.0000e+01|  5.0000e+01|
|         407|  7.7705e-01|   -4.771649|    1.726939|    0.239537|           5|   -0.681797|  5.0000e+01|  5.0000e+01|  5.0000e+01|
|         408|  7.7746e-01|   -4.702795|    1.726900|    0.239533|           5|   -0.673519|  5.0000e+01|  5.0000e+01|  5.0000e+01|
|         409|  7.7714e-01|   -4.762424|    1.726855|    0.239528|           5|   -0.898718|  5.0000e+01|  5.0000e+01|  5.0000e+01|
|         410|  7.7699e-01|   -4.757342|    1.726817|    0.239525|           5|   -0.658450|  5.0000e+01|  5.0000e+01|  5.0000e+01|
|         411|  7.7725e-01|   -4.747253|    1.726780|    0.239522|           5|   -0.683418|  5.0000e+01|  5.0000e+01|  5.0000e+01|
|         412|  7.7686e-01|   -4.719627|    1.726739|    0.239519|           5|   -0.937221|  5.0000e+01|  5.0000e+01|  5.0000e+01|
|         413|  7.7706e-01|   -4.756445|    1.726697|    0.239516|           5|   -0.909919|  5.0000e+01|  5.0000e+01|  5.0000e+01|
|         414|  7.7663e-01|   -4.674107|    1.726655|    0.239512|           5|   -0.850008|  5.0000e+01|  5.0000e+01|  5.0000e+01|
|         415|  7.7693e-01|   -4.661211|    1.726615|    0.239509|           5|   -0.621099|  5.0000e+01|  5.0000e+01|  5.0000e+01|
|         416|  7.7650e-01|   -4.672586|    1.726576|    0.239505|           5|   -0.775280|  5.0000e+01|  5.0000e+01|  5.0000e+01|
|         417|  7.7696e-01|   -4.703870|    1.726533|    0.239502|           5|   -0.785649|  5.0000e+01|  5.0000e+01|  5.0000e+01|
|         418|  7.7671e-01|   -4.778483|    1.726487|    0.239498|           5|   -0.435343|  5.0000e+01|  5.0000e+01|  5.0000e+01|
|         419|  7.7708e-01|   -4.809186|    1.726439|    0.239494|           5|   -0.554854|  5.0000e+01|  5.0000e+01|  5.0000e+01|
|         420|  7.7675e-01|   -4.837045|    1.726406|    0.239491|           5|   -0.922405|  5.0000e+01|  5.0000e+01|  5.0000e+01|
|         421|  7.7713e-01|   -4.824360|    1.726357|    0.239486|           5|   -0.655145|  5.0000e+01|  5.0000e+01|  5.0000e+01|
|         422|  7.7701e-01|   -4.770748|    1.726320|    0.239482|           5|   -0.630954|  5.0000e+01|  5.0000e+01|  5.0000e+01|
|         423|  7.7685e-01|   -4.733373|    1.726276|    0.239477|           5|   -0.920812|  5.0000e+01|  5.0000e+01|  5.0000e+01|
|         424|  7.7699e-01|   -4.810508|    1.726233|    0.239473|           5|   -0.876743|  5.0000e+01|  5.0000e+01|  5.0000e+01|
|         425|  7.7670e-01|   -4.694144|    1.726190|    0.239467|           5|   -0.911537|  5.0000e+01|  5.0000e+01|  5.0000e+01|
|         426|  7.7691e-01|   -4.714611|    1.726153|    0.239463|           5|   -0.744160|  5.0000e+01|  5.0000e+01|  5.0000e+01|
|         427|  7.7653e-01|   -4.602197|    1.726112|    0.239457|           5|   -0.816749|  5.0000e+01|  5.0000e+01|  5.0000e+01|
|         428|  7.7687e-01|   -4.287553|    1.726071|    0.239452|           5|   -1.083354|  5.0000e+01|  5.0000e+01|  5.0000e+01|
|         429|  7.7645e-01|   -4.397742|    1.726031|    0.239446|           5|   -1.050482|  5.0000e+01|  5.0000e+01|  5.0000e+01|
|         430|  7.7639e-01|   -3.866575|    1.725995|    0.239441|           5|   -0.778206|  5.0000e+01|  5.0000e+01|  5.0000e+01|
|         431|  7.7629e-01|   -4.053160|    1.725966|    0.239437|           5|   -0.636155|  5.0000e+01|  5.0000e+01|  5.0000e+01|
|         432|  7.7589e-01|   -4.096444|    1.725932|    0.239430|           5|   -0.925177|  5.0000e+01|  5.0000e+01|  5.0000e+01|
|         433|  7.7623e-01|   -4.040405|    1.725899|    0.239426|           5|   -1.098271|  5.0000e+01|  5.0000e+01|  5.0000e+01|
|         434|  7.7583e-01|   -4.323669|    1.725862|    0.239421|           5|   -1.077789|  5.0000e+01|  5.0000e+01|  5.0000e+01|
|         435|  7.7611e-01|   -4.448812|    1.725827|    0.239417|           5|   -0.805976|  5.0000e+01|  5.0000e+01|  5.0000e+01|
|         436|  7.7574e-01|   -4.495383|    1.725797|    0.239413|           5|   -0.965449|  5.0000e+01|  5.0000e+01|  5.0000e+01|
|         437|  7.7540e-01|   -4.401838|    1.725761|    0.239408|           5|   -1.087297|  5.0000e+01|  5.0000e+01|  5.0000e+01|
|         438|  7.7559e-01|   -3.919756|    1.725730|    0.239405|           5|   -1.238022|  5.0000e+01|  5.0000e+01|  5.0000e+01|
|         439|  7.7522e-01|   -4.186605|    1.725696|    0.239400|           5|   -1.056919|  5.0000e+01|  5.0000e+01|  5.0000e+01|
|         440|  7.7485e-01|   -4.520626|    1.725659|    0.239396|           5|   -1.099233|  5.0000e+01|  5.0000e+01|  5.0000e+01|
|         441|  7.7499e-01|   -4.362160|    1.725627|    0.239392|           5|   -0.954767|  5.0000e+01|  5.0000e+01|  5.0000e+01|
|         442|  7.7460e-01|   -4.210129|    1.725591|    0.239389|           5|   -1.104742|  5.0000e+01|  5.0000e+01|  5.0000e+01|
|         443|  7.7440e-01|   -4.368005|    1.725558|    0.239386|           5|   -0.992495|  5.0000e+01|  5.0000e+01|  5.0000e+01|
|         444|  7.7448e-01|   -4.433420|    1.725519|    0.239382|           5|   -0.935360|  5.0000e+01|  5.0000e+01|  5.0000e+01|
|         445|  7.7418e-01|   -4.382016|    1.725482|    0.239379|           5|   -1.092690|  5.0000e+01|  5.0000e+01|  5.0000e+01|
|         446|  7.7384e-01|   -4.525564|    1.725465|    0.239378|           5|   -0.474043|  5.0000e+01|  5.0000e+01|  5.0000e+01|
|         447|  7.7437e-01|   -4.428996|    1.725429|    0.239375|           5|   -1.000380|  5.0000e+01|  5.0000e+01|  5.0000e+01|
|         448|  7.7391e-01|   -4.375460|    1.725409|    0.239374|           5|   -0.790482|  5.0000e+01|  5.0000e+01|  5.0000e+01|
|         449|  7.7355e-01|   -4.529080|    1.725376|    0.239371|           5|   -0.669734|  5.0000e+01|  5.0000e+01|  5.0000e+01|
|         450|  7.7391e-01|   -4.080703|    1.725343|    0.239369|           5|   -0.939735|  5.0000e+01|  5.0000e+01|  5.0000e+01|
|         451|  7.7356e-01|   -4.160321|    1.725305|    0.239366|           5|   -1.015013|  5.0000e+01|  5.0000e+01|  5.0000e+01|
|         452|  7.7339e-01|   -4.249134|    1.725279|    0.239365|           5|   -0.753762|  5.0000e+01|  5.0000e+01|  5.0000e+01|
|         453|  7.7394e-01|   -4.685639|    1.725251|    0.239363|           5|   -0.538527|  5.0000e+01|  5.0000e+01|  5.0000e+01|
|         454|  7.7373e-01|   -4.441411|    1.725212|    0.239360|           5|   -1.080998|  5.0000e+01|  5.0000e+01|  5.0000e+01|
|         455|  7.7424e-01|   -3.959379|    1.725176|    0.239357|           5|   -1.366682|  5.0000e+01|  5.0000e+01|  5.0000e+01|
|         456|  7.7395e-01|   -4.509606|    1.725137|    0.239354|           5|   -1.112257|  5.0000e+01|  5.0000e+01|  5.0000e+01|
|         457|  7.7410e-01|   -4.552590|    1.725105|    0.239351|           5|   -0.905325|  5.0000e+01|  5.0000e+01|  5.0000e+01|
|         458|  7.7420e-01|   -4.475762|    1.725072|    0.239348|           5|   -0.892971|  5.0000e+01|  5.0000e+01|  5.0000e+01|
|         459|  7.7460e-01|   -4.808936|    1.725059|    0.239347|           5|   -0.389433|  5.0000e+01|  5.0000e+01|  5.0000e+01|
|         460|  7.7441e-01|   -4.870419|    1.725021|    0.239343|           5|   -0.537887|  5.0000e+01|  5.0000e+01|  5.0000e+01|
|         461|  7.7474e-01|   -4.509021|    1.724979|    0.239338|           5|   -0.904472|  5.0000e+01|  5.0000e+01|  5.0000e+01|
|         462|  7.7441e-01|   -4.633014|    1.724947|    0.239334|           5|   -0.955500|  5.0000e+01|  5.0000e+01|  5.0000e+01|
|         463|  7.7461e-01|   -4.350440|    1.724910|    0.239329|           5|   -1.202586|  5.0000e+01|  5.0000e+01|  5.0000e+01|
|         464|  7.7430e-01|   -4.525212|    1.724875|    0.239325|           5|   -1.145354|  5.0000e+01|  5.0000e+01|  5.0000e+01|
|         465|  7.7463e-01|   -4.665009|    1.724840|    0.239320|           5|   -1.116549|  5.0000e+01|  5.0000e+01|  5.0000e+01|
|         466|  7.7443e-01|   -4.005762|    1.724807|    0.239316|           5|   -1.498934|  5.0000e+01|  5.0000e+01|  5.0000e+01|
|         467|  7.7471e-01|   -4.311398|    1.724776|    0.239312|           5|   -1.156319|  5.0000e+01|  5.0000e+01|  5.0000e+01|
|         468|  7.7441e-01|   -4.268518|    1.724742|    0.239308|           5|   -1.154477|  5.0000e+01|  5.0000e+01|  5.0000e+01|
|         469|  7.7476e-01|   -4.408913|    1.724705|    0.239303|           5|   -1.346507|  5.0000e+01|  5.0000e+01|  5.0000e+01|
|         470|  7.7452e-01|   -4.567613|    1.724674|    0.239299|           5|   -1.127836|  5.0000e+01|  5.0000e+01|  5.0000e+01|
|         471|  7.7487e-01|   -4.441561|    1.724637|    0.239294|           5|   -0.970509|  5.0000e+01|  5.0000e+01|  5.0000e+01|
|         472|  7.7453e-01|   -4.428758|    1.724604|    0.239290|           5|   -1.105974|  5.0000e+01|  5.0000e+01|  5.0000e+01|
|         473|  7.7465e-01|   -4.272445|    1.724567|    0.239286|           5|   -1.153658|  5.0000e+01|  5.0000e+01|  5.0000e+01|
|         474|  7.7437e-01|   -4.014550|    1.724542|    0.239283|           5|   -1.043825|  5.0000e+01|  5.0000e+01|  5.0000e+01|
|         475|  7.7405e-01|   -4.113660|    1.724508|    0.239279|           5|   -1.226024|  5.0000e+01|  5.0000e+01|  5.0000e+01|
|         476|  7.7443e-01|   -4.589695|    1.724477|    0.239275|           5|   -1.004996|  5.0000e+01|  5.0000e+01|  5.0000e+01|
|         477|  7.7419e-01|   -4.593269|    1.724441|    0.239272|           5|   -1.191034|  5.0000e+01|  5.0000e+01|  5.0000e+01|
|         478|  7.7454e-01|   -4.471946|    1.724405|    0.239267|           5|   -0.678931|  5.0000e+01|  5.0000e+01|  5.0000e+01|
|         479|  7.7420e-01|   -4.443779|    1.724375|    0.239265|           5|   -1.165617|  5.0000e+01|  5.0000e+01|  5.0000e+01|
|         480|  7.7422e-01|   -4.470686|    1.724339|    0.239262|           5|   -1.065835|  5.0000e+01|  5.0000e+01|  5.0000e+01|
|         481|  7.7429e-01|   -4.474117|    1.724309|    0.239260|           5|   -0.926755|  5.0000e+01|  5.0000e+01|  5.0000e+01|
|         482|  7.7395e-01|   -4.383202|    1.724274|    0.239257|           5|   -1.174131|  5.0000e+01|  5.0000e+01|  5.0000e+01|
|         483|  7.7409e-01|   -4.610590|    1.724243|    0.239254|           5|   -0.901942|  5.0000e+01|  5.0000e+01|  5.0000e+01|
|         484|  7.7379e-01|   -4.441213|    1.724215|    0.239252|           5|   -0.901192|  5.0000e+01|  5.0000e+01|  5.0000e+01|
|         485|  7.7407e-01|   -4.122376|    1.724184|    0.239249|           5|   -1.178020|  5.0000e+01|  5.0000e+01|  5.0000e+01|
|         486|  7.7374e-01|   -4.468277|    1.724147|    0.239246|           5|   -1.127654|  5.0000e+01|  5.0000e+01|  5.0000e+01|
|         487|  7.7397e-01|   -4.169766|    1.724114|    0.239242|           5|   -1.246229|  5.0000e+01|  5.0000e+01|  5.0000e+01|
|         488|  7.7367e-01|   -4.510758|    1.724081|    0.239239|           5|   -0.967712|  5.0000e+01|  5.0000e+01|  5.0000e+01|
|         489|  7.7339e-01|   -4.523882|    1.724044|    0.239236|           5|   -1.124312|  5.0000e+01|  5.0000e+01|  5.0000e+01|
|         490|  7.7356e-01|   -4.348776|    1.724010|    0.239232|           5|   -1.243019|  5.0000e+01|  5.0000e+01|  5.0000e+01|
|         491|  7.7326e-01|   -4.526079|    1.723971|    0.239228|           5|   -1.029756|  5.0000e+01|  5.0000e+01|  5.0000e+01|
|         492|  7.7354e-01|   -4.340767|    1.723934|    0.239224|           5|   -1.181696|  5.0000e+01|  5.0000e+01|  5.0000e+01|
|         493|  7.7322e-01|   -4.167090|    1.723898|    0.239220|           5|   -1.112305|  5.0000e+01|  5.0000e+01|  5.0000e+01|
|         494|  7.7342e-01|   -4.131262|    1.723865|    0.239217|           5|   -0.960136|  5.0000e+01|  5.0000e+01|  5.0000e+01|
|         495|  7.7315e-01|   -4.608666|    1.723827|    0.239212|           5|   -0.799910|  5.0000e+01|  5.0000e+01|  5.0000e+01|
|         496|  7.7280e-01|   -4.590355|    1.723792|    0.239208|           5|   -0.535970|  5.0000e+01|  5.0000e+01|  5.0000e+01|
|         497|  7.7311e-01|   -4.602272|    1.723767|    0.239205|           5|   -0.459613|  5.0000e+01|  5.0000e+01|  5.0000e+01|
|         498|  7.7289e-01|   -4.618469|    1.723739|    0.239202|           5|   -0.496066|  5.0000e+01|  5.0000e+01|  5.0000e+01|
|         499|  7.7321e-01|   -4.822581|    1.723704|    0.239197|           5|   -0.734209|  5.0000e+01|  5.0000e+01|  5.0000e+01|

----------------------------- Solver Exit -------------------------------

Maximum number of iterations reached (ITER = 500) before convergence.
+-----------------------------------------------------------------------+
|      Convergence Field     |     Value    |   Criterion  |  Converged |
+-----------------------------------------------------------------------+
|                  Cauchy[CL]|   2.02326e-05|       < 1e-06|          No|
+-----------------------------------------------------------------------+
-------------------------------------------------------------------------
+-----------------------------------------------------------------------+
|        File Writing Summary       |              Filename             |
+-----------------------------------------------------------------------+
|SU2 binary restart                 |restart_flow.dat                   |

Writing the forces breakdown file (forces_breakdown.dat).
|Paraview                           |flow.vtu                           |

Writing the forces breakdown file (forces_breakdown.dat).
|Paraview surface                   |surface_flow.vtu                   |

Writing the forces breakdown file (forces_breakdown.dat).
+-----------------------------------------------------------------------+

--------------------------- Finalizing Solver ---------------------------
Deleted CNumerics container.
Deleted CIntegration container.
Deleted CSolver container.
Deleted CIteration container.
Deleted CInterface container.
Deleted CGeometry container.
Deleted CFreeFormDefBox class.
Deleted CSurfaceMovement class.
Deleted CVolumetricMovement class.
Deleted CConfig container.
Deleted nInst container.
Deleted COutput class.
-------------------------------------------------------------------------

------------------------- Exit Success (SU2_CFD) ------------------------

