
-------------------------------------------------------------------------
|    ___ _   _ ___                                                      |
|   / __| | | |_  )   Release 8.0.0 "Harrier"                           |
|   \__ \ |_| |/ /                                                      |
|   |___/\___//___|   Suite (Computational Fluid Dynamics Code)         |
|                                                                       |
-------------------------------------------------------------------------
| SU2 Project Website: https://su2code.github.io                        |
|                                                                       |
| The SU2 Project is maintained by the SU2 Foundation                   |
| (http://su2foundation.org)                                            |
-------------------------------------------------------------------------
| Copyright 2012-2023, SU2 Contributors                                 |
|                                                                       |
| SU2 is free software; you can redistribute it and/or                  |
| modify it under the terms of the GNU Lesser General Public            |
| License as published by the Free Software Foundation; either          |
| version 2.1 of the License, or (at your option) any later version.    |
|                                                                       |
| SU2 is distributed in the hope that it will be useful,                |
| but WITHOUT ANY WARRANTY; without even the implied warranty of        |
| MERCHANTABILITY or FITNESS FOR A PARTICULAR PURPOSE. See the GNU      |
| Lesser General Public License for more details.                       |
|                                                                       |
| You should have received a copy of the GNU Lesser General Public      |
| License along with SU2. If not, see <http://www.gnu.org/licenses/>.   |
-------------------------------------------------------------------------

Parsing config file for zone 0

----------------- Physical Case Definition ( Zone 0 ) -------------------
Compressible RANS equations.
Turbulence model: Spalart-Allmaras-noft2
Hybrid RANS/LES: No Hybrid RANS/LES
Mach number: 0.734.
Angle of attack (AoA): 2.31 deg, and angle of sideslip (AoS): 0 deg.
Reynolds number: 6.5e+06. Reference length 1.
Fixed CL mode, target value: 0.824.
Reading and writing binary SU2 native restart files.
Read flow solution from: solution_flow.dat.
Dimensional simulation.
The reference area is 1 m^2.
The semi-span will be computed using the max y(3D) value.
The reference length is 1 m.
Reference origin for moment evaluation is (0.25, 0, 0).
Surface(s) where the force coefficients are evaluated: AIRFOIL.

Surface(s) plotted in the output file: AIRFOIL.
Surface(s) affected by the design variables: AIRFOIL.
Input mesh file name: mesh_RAE2822_turb_deform.su2

--------------- Space Numerical Integration ( Zone 0 ) ------------------
Jameson-Schmidt-Turkel scheme (2nd order in space) for the flow inviscid terms.
JST viscous coefficients (2nd & 4th): 0.5, 0.02.
The method includes a grid stretching correction (p = 0.3).
Scalar upwind solver for the turbulence model.
First order integration in space.
Average of gradients with correction (viscous flow terms).
Average of gradients with correction (viscous turbulence terms).
Gradient for viscous and source terms: inverse-distance weighted Least-Squares.

--------------- Time Numerical Integration  ( Zone 0 ) ------------------
Local time stepping (steady state simulation).
Euler implicit method for the flow equations.
FGMRES is used for solving the linear system.
Using a ILU(0) preconditioning.
Convergence criteria of the linear solver: 1e-06.
Max number of linear iterations: 10.
No CFL adaptation.
Courant-Friedrichs-Lewy number:       10
Euler implicit time integration for the turbulence model.

------------------ Convergence Criteria  ( Zone 0 ) ---------------------
Maximum number of solver subiterations: 5500.
Begin convergence monitoring at iteration 10.
Residual minimum value: 1e-12.
Cauchy series min. value: 1e-06.
Number of Cauchy elements: 100.
Begin windowed time average at iteration 0.

-------------------- Output Information ( Zone 0 ) ----------------------
File writing frequency: 
+------------------------------------+
|                     File| Frequency|
+------------------------------------+
|                  RESTART|     10000|
|                 PARAVIEW|     10000|
|         SURFACE_PARAVIEW|     10000|
|              SURFACE_CSV|     10000|
+------------------------------------+
Writing the convergence history file every 1 inner iterations.
Writing the screen convergence history every 1 inner iterations.
The tabular file format is CSV (.csv).
Convergence history file name: history_direct.
Forces breakdown file name: forces_breakdown.dat.
Surface file name: surface_flow.
Volume file name: flow.
Restart file name: restart_flow.dat.

------------- Config File Boundary Information ( Zone 0 ) ---------------
+-----------------------------------------------------------------------+
|                        Marker Type|                        Marker Name|
+-----------------------------------------------------------------------+
|                          Far-field|                           FARFIELD|
+-----------------------------------------------------------------------+
|                     Heat flux wall|                            AIRFOIL|
+-----------------------------------------------------------------------+

-------------------- Output Preprocessing ( Zone 0 ) --------------------

WARNING: SURFACE_PRESSURE_DROP can only be computed for at least 2 surfaces (outlet, inlet, ...)

Screen output fields: INNER_ITER, RMS_DENSITY, RMS_NU_TILDE, LIFT, DRAG
History output group(s): ITER, RMS_RES, AERO_COEFF
Convergence field(s): RMS_DENSITY
Warning: No (valid) fields chosen for time convergence monitoring. Time convergence monitoring inactive.
Volume output fields: COORDINATES, SOLUTION, PRIMITIVE

------------------- Geometry Preprocessing ( Zone 0 ) -------------------
Two dimensional problem.
13937 grid points before partitioning.
22842 volume elements before partitioning.
2 surface markers.
192 boundary elements in index 0 (Marker = AIRFOIL).
40 boundary elements in index 1 (Marker = FARFIELD).
Executing the partitioning functions.
Building the graph adjacency structure.
Calling ParMETIS... graph partitioning complete (831 edge cuts).
Distributing ParMETIS coloring.
Rebalancing vertices.
Rebalancing volume element connectivity.
Rebalancing markers and surface elements.
14875 vertices including ghost points. 
23674 interior elements including halo cells. 
18780 triangles.
4894 quadrilaterals.
Establishing MPI communication patterns.
Setting point connectivity.
Renumbering points (Reverse Cuthill McKee Ordering).
Recomputing point connectivity.
Setting element connectivity.
Checking the numerical grid orientation.
All volume elements are correctly orientend.
All surface elements are correctly orientend.
Identifying edges and vertices.
Setting the control volume structure.
Area of the computational grid: 32209.9.
Searching for the closest normal neighbors to the surfaces.
Storing a mapping from global to local point index.
Compute the surface curvature.
Max K: 173.24. Mean K: 7.81179. Standard deviation K: 23.8567.
Checking for periodicity.
Computing mesh quality statistics for the dual control volumes.
+--------------------------------------------------------------+
|           Mesh Quality Metric|        Minimum|        Maximum|
+--------------------------------------------------------------+
|    Orthogonality Angle (deg.)|         75.148|         89.999|
|     CV Face Area Aspect Ratio|        1.00371|        3358.53|
|           CV Sub-Volume Ratio|        1.00046|        1215.07|
+--------------------------------------------------------------+
Finding max control volume width.
Communicating number of neighbors.
Wetted area = 2.02192 m.
Area projection in the x-plane = 0.12481 m, y-plane = 0.995873 m.
Max. coordinate in the x-direction = 1 m, y-direction = 0.0621007 m.
Min. coordinate in the x-direction = 0 m, y-direction = -0.0599131 m.
Computing wall distances.

-------------------- Solver Preprocessing ( Zone 0 ) --------------------
WARNING: AoA in the solution file (2.79043 deg.) +
         AoA offset in mesh file (0 deg.) = 2.79043 deg.
WARNING: SU2 will use the dCD/dCL provided in the direct solution file: 0.0176214.
WARNING: SU2 will use the dCMz/dCL provided in the direct solution file: 0.00317374.
Viscous flow: Computing pressure using the ideal gas law
based on the free-stream temperature and a density computed
from the Reynolds number.
Force coefficients computed using free-stream values.

-- Models:
+------------------------------------------------------------------------------+
|          Viscosity Model|        Conductivity Model|              Fluid Model|
+------------------------------------------------------------------------------+
|               SUTHERLAND|          CONSTANT_PRANDTL|             STANDARD_AIR|
+------------------------------------------------------------------------------+
-- Fluid properties:
+------------------------------------------------------------------------------+
|                  Name|    Dim. value|    Ref. value|      Unit|Non-dim. value|
+------------------------------------------------------------------------------+
|        Ref. Viscosity|     1.716e-05|             1|   N.s/m^2|     1.716e-05|
|      Sutherland Temp.|        273.15|             1|         K|        273.15|
|     Sutherland Const.|         110.4|             1|         K|         110.4|
+------------------------------------------------------------------------------+
|        Prandtl (Lam.)|             -|             -|         -|          0.71|
|       Prandtl (Turb.)|             -|             -|         -|           0.9|
+------------------------------------------------------------------------------+
|          Gas Constant|       287.058|             1|  N.m/kg.K|       287.058|
|      Spec. Heat Ratio|             -|             -|         -|           1.4|
+------------------------------------------------------------------------------+
-- Initial and free-stream conditions:
+------------------------------------------------------------------------------+
|                  Name|    Dim. value|    Ref. value|      Unit|Non-dim. value|
+------------------------------------------------------------------------------+
|       Static Pressure|         38515|             1|        Pa|         38515|
|               Density|      0.465631|             1|    kg/m^3|      0.465631|
|           Temperature|        288.15|             1|         K|        288.15|
|          Total Energy|        237984|             1|   m^2/s^2|        237984|
|            Velocity-X|       249.482|             1|       m/s|       249.482|
|            Velocity-Y|       12.1599|             1|       m/s|       12.1599|
|    Velocity Magnitude|       249.778|             1|       m/s|       249.778|
+------------------------------------------------------------------------------+
|             Viscosity|    1.7893e-05|             1|   N.s/m^2|    1.7893e-05|
|          Conductivity|             -|             1|   W/m^2.K|             -|
|     Turb. Kin. Energy|       233.959|             1|   m^2/s^2|       233.959|
|     Spec. Dissipation|        608834|             1|       1/s|        608834|
+------------------------------------------------------------------------------+
|           Mach Number|             -|             -|         -|         0.734|
|       Reynolds Number|             -|             -|         -|       6.5e+06|
+------------------------------------------------------------------------------+
Initialize Jacobian structure (Navier-Stokes). MG level: 0.
Initialize Jacobian structure (SA model).

------------------- Numerics Preprocessing ( Zone 0 ) -------------------

----------------- Integration Preprocessing ( Zone 0 ) ------------------

------------------- Iteration Preprocessing ( Zone 0 ) ------------------
Euler/Navier-Stokes/RANS fluid iteration.

------------------------------ Begin Solver -----------------------------

Simulation Run using the Single-zone Driver
WARNING: SU2 was not compiled for an AVX-capable architecture. Performance could be better,
         see https://su2code.github.io/docs_v7/Build-SU2-Linux-MacOS/#compiler-optimizations
+----------------------------------------------------------------+
|  Inner_Iter|    rms[Rho]|     rms[nu]|          CL|          CD|
+----------------------------------------------------------------+
|           0|   -5.278960|   -6.443403|    0.823995|    0.011973|
|           1|   -5.331671|   -6.532551|    0.823986|    0.011968|
|           2|   -5.384881|   -6.638300|    0.823977|    0.011966|
|           3|   -5.422198|   -6.755876|    0.823970|    0.011967|
|           4|   -5.447278|   -6.879615|    0.823966|    0.011968|
|           5|   -5.464631|   -6.996399|    0.823963|    0.011968|
|           6|   -5.476278|   -7.081545|    0.823962|    0.011968|
|           7|   -5.483290|   -7.116021|    0.823961|    0.011966|
|           8|   -5.486114|   -7.111971|    0.823962|    0.011965|
|           9|   -5.484365|   -7.094977|    0.823963|    0.011964|
|          10|   -5.477337|   -7.079162|    0.823965|    0.011963|
|          11|   -5.464987|   -7.067254|    0.823968|    0.011963|
|          12|   -5.448439|   -7.057288|    0.823972|    0.011963|
|          13|   -5.429647|   -7.046975|    0.823977|    0.011963|
|          14|   -5.410706|   -7.035505|    0.823983|    0.011965|
|          15|   -5.393320|   -7.023326|    0.823988|    0.011966|
|          16|   -5.378598|   -7.011014|    0.823993|    0.011968|
|          17|   -5.367053|   -6.998464|    0.823998|    0.011970|
|          18|   -5.358688|   -6.984906|    0.824002|    0.011973|
|          19|   -5.353099|   -6.969539|    0.824005|    0.011975|
|          20|   -5.349610|   -6.952239|    0.824008|    0.011977|
|          21|   -5.347418|   -6.933818|    0.824009|    0.011979|
|          22|   -5.345747|   -6.915747|    0.824009|    0.011981|
|          23|   -5.343980|   -6.899636|    0.824009|    0.011983|
|          24|   -5.341732|   -6.886805|    0.824007|    0.011984|
|          25|   -5.338848|   -6.878101|    0.824005|    0.011985|
|          26|   -5.335353|   -6.873895|    0.824002|    0.011986|
|          27|   -5.331373|   -6.874155|    0.823999|    0.011987|
|          28|   -5.327079|   -6.878528|    0.823996|    0.011987|
|          29|   -5.322645|   -6.886410|    0.823993|    0.011988|
|          30|   -5.318234|   -6.896985|    0.823990|    0.011988|
|          31|   -5.313986|   -6.909258|    0.823986|    0.011988|
|          32|   -5.310028|   -6.922106|    0.823983|    0.011989|
|          33|   -5.306462|   -6.934353|    0.823981|    0.011989|
|          34|   -5.303362|   -6.944893|    0.823978|    0.011989|
|          35|   -5.300774|   -6.952837|    0.823976|    0.011989|
|          36|   -5.298712|   -6.957642|    0.823974|    0.011989|
|          37|   -5.297163|   -6.959175|    0.823972|    0.011989|
|          38|   -5.296090|   -6.957678|    0.823970|    0.011989|
|          39|   -5.295443|   -6.953661|    0.823969|    0.011990|
|          40|   -5.295152|   -6.947771|    0.823967|    0.011990|
|          41|   -5.295149|   -6.940683|    0.823965|    0.011990|
|          42|   -5.295372|   -6.933032|    0.823964|    0.011990|
|          43|   -5.295765|   -6.925390|    0.823962|    0.011990|
|          44|   -5.296284|   -6.918257|    0.823960|    0.011990|
|          45|   -5.296893|   -6.912063|    0.823958|    0.011989|
|          46|   -5.297569|   -6.907168|    0.823957|    0.011989|
|          47|   -5.298297|   -6.903850|    0.823955|    0.011989|
|          48|   -5.299071|   -6.902298|    0.823953|    0.011989|
|          49|   -5.299889|   -6.902602|    0.823952|    0.011989|
|          50|   -5.300760|   -6.904742|    0.823950|    0.011989|
|          51|   -5.301698|   -6.908591|    0.823949|    0.011989|
|          52|   -5.302718|   -6.913920|    0.823948|    0.011989|
|          53|   -5.303841|   -6.920411|    0.823947|    0.011989|
|          54|   -5.305088|   -6.927685|    0.823946|    0.011989|
|          55|   -5.306488|   -6.935333|    0.823946|    0.011989|
|          56|   -5.308057|   -6.942950|    0.823946|    0.011989|
|          57|   -5.309813|   -6.950180|    0.823946|    0.011989|
|          58|   -5.311770|   -6.956739|    0.823946|    0.011989|
|          59|   -5.313933|   -6.962446|    0.823946|    0.011989|
|          60|   -5.316299|   -6.967221|    0.823946|    0.011989|
|          61|   -5.318860|   -6.971082|    0.823946|    0.011989|
|          62|   -5.321596|   -6.974123|    0.823947|    0.011989|
|          63|   -5.324481|   -6.976494|    0.823947|    0.011990|
|          64|   -5.327487|   -6.978368|    0.823947|    0.011990|
|          65|   -5.330586|   -6.979927|    0.823947|    0.011990|
|          66|   -5.333757|   -6.981337|    0.823948|    0.011990|
|          67|   -5.336980|   -6.982735|    0.823948|    0.011990|
|          68|   -5.340254|   -6.984223|    0.823948|    0.011990|
|          69|   -5.343580|   -6.985859|    0.823948|    0.011990|
|          70|   -5.346967|   -6.987662|    0.823948|    0.011990|
|          71|   -5.350423|   -6.989618|    0.823948|    0.011990|
|          72|   -5.353957|   -6.991685|    0.823948|    0.011991|
|          73|   -5.357568|   -6.993810|    0.823948|    0.011991|
|          74|   -5.361251|   -6.995936|    0.823948|    0.011991|
|          75|   -5.364987|   -6.998021|    0.823947|    0.011991|
|          76|   -5.368756|   -7.000042|    0.823947|    0.011991|
|          77|   -5.372533|   -7.002002|    0.823947|    0.011992|
|          78|   -5.376294|   -7.003924|    0.823947|    0.011992|
|          79|   -5.380023|   -7.005854|    0.823947|    0.011992|
|          80|   -5.383711|   -7.007849|    0.823947|    0.011992|
|          81|   -5.387358|   -7.009970|    0.823946|    0.011993|
|          82|   -5.390970|   -7.012277|    0.823946|    0.011993|
|          83|   -5.394561|   -7.014823|    0.823946|    0.011993|
|          84|   -5.398145|   -7.017650|    0.823945|    0.011994|
|          85|   -5.401732|   -7.020788|    0.823945|    0.011994|
|          86|   -5.405327|   -7.024257|    0.823944|    0.011994|
|          87|   -5.408925|   -7.028069|    0.823944|    0.011995|
|          88|   -5.412512|   -7.032226|    0.823943|    0.011995|
|          89|   -5.416064|   -7.036728|    0.823943|    0.011995|
|          90|   -5.419550|   -7.041570|    0.823942|    0.011995|
|          91|   -5.422935|   -7.046745|    0.823942|    0.011996|
|          92|   -5.426181|   -7.052243|    0.823941|    0.011996|
|          93|   -5.429251|   -7.058055|    0.823941|    0.011996|
|          94|   -5.432112|   -7.064169|    0.823941|    0.011997|
|          95|   -5.434738|   -7.070573|    0.823941|    0.011997|
|          96|   -5.437107|   -7.077253|    0.823941|    0.011997|
|          97|   -5.439209|   -7.084191|    0.823941|    0.011998|
|          98|   -5.441039|   -7.091370|    0.823941|    0.011998|
|          99|   -5.442601|   -7.098763|    0.823941|    0.011998|
|         100|   -5.443906|   -7.106345|    0.823941|    0.011999|
|         101|   -5.444974|   -7.114081|    0.823941|    0.012003|
+-----------------------------------------------------------------------+
|Fixed CL Mode                           |Value                         |
+-----------------------------------------------------------------------+
|Current CL                              |0.823941                      |
|Target CL                               |0.824                         |
|Previous AOA                            |2.79043                       |
|Changed AoA by                          |0.000294557                   |
+-----------------------------------------------------------------------+
+----------------------------------------------------------------+
|  Inner_Iter|    rms[Rho]|     rms[nu]|          CL|          CD|
+----------------------------------------------------------------+
|         102|   -3.724167|   -7.113740|    0.823942|    0.012004|
|         103|   -4.109047|   -7.125718|    0.823942|    0.012004|
|         104|   -4.355034|   -7.134801|    0.823942|    0.012005|
|         105|   -4.435282|   -7.143303|    0.823943|    0.012005|
|         106|   -4.489288|   -7.151546|    0.823943|    0.012006|
|         107|   -4.558711|   -7.159564|    0.823943|    0.012006|
|         108|   -4.643873|   -7.167335|    0.823944|    0.012007|
|         109|   -4.731440|   -7.174821|    0.823944|    0.012007|
|         110|   -4.804584|   -7.181990|    0.823944|    0.012008|
|         111|   -4.855671|   -7.188811|    0.823944|    0.012009|
|         112|   -4.887633|   -7.195260|    0.823944|    0.012009|
|         113|   -4.905326|   -7.201333|    0.823944|    0.012010|
|         114|   -4.912987|   -7.207034|    0.823944|    0.012010|
|         115|   -4.916068|   -7.212370|    0.823944|    0.012011|
|         116|   -4.920377|   -7.217345|    0.823943|    0.012011|
|         117|   -4.929693|   -7.221961|    0.823943|    0.012012|
|         118|   -4.944742|   -7.226227|    0.823942|    0.012012|
|         119|   -4.963718|   -7.230161|    0.823942|    0.012012|
|         120|   -4.983668|   -7.233791|    0.823941|    0.012013|
|         121|   -5.002172|   -7.237151|    0.823940|    0.012013|
|         122|   -5.018476|   -7.240275|    0.823939|    0.012014|
|         123|   -5.033366|   -7.243204|    0.823938|    0.012014|
|         124|   -5.048097|   -7.245976|    0.823937|    0.012014|
|         125|   -5.063421|   -7.248629|    0.823936|    0.012015|
|         126|   -5.079271|   -7.251201|    0.823935|    0.012015|
|         127|   -5.094985|   -7.253731|    0.823935|    0.012015|
|         128|   -5.109693|   -7.256266|    0.823934|    0.012015|
|         129|   -5.122617|   -7.258837|    0.823933|    0.012016|
|         130|   -5.133238|   -7.261472|    0.823932|    0.012016|
|         131|   -5.141381|   -7.264198|    0.823932|    0.012016|
|         132|   -5.147275|   -7.267043|    0.823931|    0.012016|
|         133|   -5.151527|   -7.270032|    0.823930|    0.012017|
|         134|   -5.154983|   -7.273188|    0.823930|    0.012017|
|         135|   -5.158517|   -7.276532|    0.823930|    0.012017|
|         136|   -5.162826|   -7.280079|    0.823929|    0.012017|
|         137|   -5.168311|   -7.283845|    0.823929|    0.012018|
|         138|   -5.175039|   -7.287841|    0.823929|    0.012018|
|         139|   -5.182764|   -7.292075|    0.823929|    0.012018|
|         140|   -5.190989|   -7.296554|    0.823929|    0.012018|
|         141|   -5.199067|   -7.301279|    0.823929|    0.012019|
|         142|   -5.206350|   -7.306250|    0.823929|    0.012019|
|         143|   -5.212354|   -7.311467|    0.823929|    0.012019|
|         144|   -5.216894|   -7.316923|    0.823930|    0.012020|
|         145|   -5.220133|   -7.322614|    0.823930|    0.012020|
|         146|   -5.222520|   -7.328530|    0.823930|    0.012020|
|         147|   -5.224640|   -7.334664|    0.823931|    0.012021|
|         148|   -5.227057|   -7.341004|    0.823931|    0.012021|
|         149|   -5.230189|   -7.347536|    0.823932|    0.012021|
|         150|   -5.234250|   -7.354248|    0.823933|    0.012022|
|         151|   -5.239248|   -7.361127|    0.823933|    0.012022|
|         152|   -5.245021|   -7.368157|    0.823934|    0.012022|
|         153|   -5.251306|   -7.375322|    0.823935|    0.012022|
|         154|   -5.257808|   -7.382606|    0.823936|    0.012023|
|         155|   -5.264265|   -7.389991|    0.823937|    0.012023|
|         156|   -5.270494|   -7.397457|    0.823938|    0.012023|
|         157|   -5.276412|   -7.404985|    0.823939|    0.012023|
|         158|   -5.282032|   -7.412549|    0.823940|    0.012023|
|         159|   -5.287435|   -7.420123|    0.823942|    0.012024|
|         160|   -5.292737|   -7.427676|    0.823943|    0.012024|
|         161|   -5.298052|   -7.435177|    0.823945|    0.012024|
|         162|   -5.303470|   -7.442593|    0.823946|    0.012024|
|         163|   -5.309048|   -7.449888|    0.823948|    0.012024|
|         164|   -5.314807|   -7.457028|    0.823949|    0.012024|
|         165|   -5.320745|   -7.463978|    0.823951|    0.012024|
|         166|   -5.326836|   -7.470697|    0.823953|    0.012025|
|         167|   -5.333054|   -7.477142|    0.823955|    0.012025|
|         168|   -5.339375|   -7.483273|    0.823957|    0.012025|
|         169|   -5.345781|   -7.489054|    0.823959|    0.012025|
|         170|   -5.352262|   -7.494453|    0.823961|    0.012025|
|         171|   -5.358811|   -7.499436|    0.823963|    0.012025|
|         172|   -5.365427|   -7.503971|    0.823965|    0.012025|
|         173|   -5.372106|   -7.508033|    0.823967|    0.012025|
|         174|   -5.378839|   -7.511598|    0.823969|    0.012025|
|         175|   -5.385616|   -7.514645|    0.823971|    0.012025|
|         176|   -5.392418|   -7.517168|    0.823972|    0.012025|
|         177|   -5.399221|   -7.519156|    0.823974|    0.012025|
|         178|   -5.405997|   -7.520610|    0.823975|    0.012025|
|         179|   -5.412712|   -7.521537|    0.823977|    0.012025|
|         180|   -5.419326|   -7.521951|    0.823978|    0.012025|
|         181|   -5.425797|   -7.521884|    0.823979|    0.012025|
|         182|   -5.432082|   -7.521363|    0.823980|    0.012025|
|         183|   -5.438131|   -7.520425|    0.823981|    0.012025|
|         184|   -5.443899|   -7.519112|    0.823982|    0.012025|
|         185|   -5.449338|   -7.517476|    0.823982|    0.012025|
|         186|   -5.454407|   -7.515567|    0.823983|    0.012025|
|         187|   -5.459069|   -7.513440|    0.823983|    0.012025|
|         188|   -5.463297|   -7.511153|    0.823983|    0.012024|
|         189|   -5.467074|   -7.508757|    0.823983|    0.012024|
|         190|   -5.470395|   -7.506318|    0.823983|    0.012024|
|         191|   -5.473269|   -7.503896|    0.823982|    0.012024|
|         192|   -5.475717|   -7.501548|    0.823982|    0.012024|
|         193|   -5.477775|   -7.499320|    0.823981|    0.012024|
|         194|   -5.479488|   -7.497254|    0.823981|    0.012024|
|         195|   -5.480913|   -7.495377|    0.823980|    0.012024|
|         196|   -5.482115|   -7.493712|    0.823979|    0.012023|
|         197|   -5.483165|   -7.492274|    0.823978|    0.012023|
|         198|   -5.484138|   -7.491075|    0.823977|    0.012023|
|         199|   -5.485110|   -7.490116|    0.823976|    0.012023|
|         200|   -5.486158|   -7.489394|    0.823975|    0.012023|
|         201|   -5.487359|   -7.488898|    0.823974|    0.012024|
+-----------------------------------------------------------------------+
|Fixed CL Mode                           |Value                         |
+-----------------------------------------------------------------------+
|Current CL                              |0.823974                      |
|Target CL                               |0.824                         |
|Previous AOA                            |2.79072                       |
|Changed AoA by                          |0.000125534                   |
+-----------------------------------------------------------------------+
+----------------------------------------------------------------+
|  Inner_Iter|    rms[Rho]|     rms[nu]|          CL|          CD|
+----------------------------------------------------------------+
|         202|   -4.094117|   -7.480187|    0.823973|    0.012024|
|         203|   -4.474731|   -7.484205|    0.823971|    0.012024|
|         204|   -4.709723|   -7.485469|    0.823970|    0.012024|
|         205|   -4.785153|   -7.486337|    0.823969|    0.012024|
|         206|   -4.837798|   -7.487139|    0.823968|    0.012023|
|         207|   -4.905052|   -7.487925|    0.823967|    0.012023|
|         208|   -4.986201|   -7.488680|    0.823966|    0.012023|
|         209|   -5.068619|   -7.489383|    0.823965|    0.012023|
|         210|   -5.137785|   -7.490028|    0.823964|    0.012023|
|         211|   -5.187904|   -7.490596|    0.823963|    0.012023|
|         212|   -5.221633|   -7.491080|    0.823962|    0.012022|
|         213|   -5.242589|   -7.491480|    0.823962|    0.012022|
|         214|   -5.253778|   -7.491796|    0.823961|    0.012022|
|         215|   -5.259653|   -7.492028|    0.823960|    0.012022|
|         216|   -5.265503|   -7.492165|    0.823960|    0.012022|
|         217|   -5.275105|   -7.492175|    0.823959|    0.012022|
|         218|   -5.289527|   -7.492080|    0.823959|    0.012022|
|         219|   -5.307522|   -7.491907|    0.823958|    0.012022|
|         220|   -5.326779|   -7.491657|    0.823958|    0.012022|
|         221|   -5.345396|   -7.491346|    0.823958|    0.012022|
|         222|   -5.362795|   -7.490982|    0.823958|    0.012022|
|         223|   -5.379574|   -7.490578|    0.823958|    0.012022|
|         224|   -5.396633|   -7.490152|    0.823958|    0.012022|
|         225|   -5.414388|   -7.489717|    0.823958|    0.012022|
|         226|   -5.432523|   -7.489285|    0.823958|    0.012022|
|         227|   -5.450216|   -7.488867|    0.823958|    0.012022|
|         228|   -5.466514|   -7.488477|    0.823958|    0.012022|
|         229|   -5.480656|   -7.488133|    0.823959|    0.012022|
|         230|   -5.492223|   -7.487843|    0.823959|    0.012022|
|         231|   -5.501199|   -7.487611|    0.823960|    0.012022|
|         232|   -5.507970|   -7.487444|    0.823960|    0.012022|
|         233|   -5.513254|   -7.487348|    0.823961|    0.012022|
|         234|   -5.517938|   -7.487329|    0.823962|    0.012022|
|         235|   -5.522876|   -7.487393|    0.823963|    0.012022|
|         236|   -5.528714|   -7.487543|    0.823964|    0.012022|
|         237|   -5.535789|   -7.487787|    0.823964|    0.012022|
|         238|   -5.544109|   -7.488127|    0.823965|    0.012022|
|         239|   -5.553377|   -7.488572|    0.823966|    0.012023|
|         240|   -5.563064|   -7.489121|    0.823968|    0.012023|
|         241|   -5.572506|   -7.489777|    0.823969|    0.012023|
|         242|   -5.581055|   -7.490537|    0.823970|    0.012023|
|         243|   -5.588242|   -7.491387|    0.823971|    0.012023|
|         244|   -5.593913|   -7.492338|    0.823972|    0.012023|
|         245|   -5.598275|   -7.493407|    0.823974|    0.012023|
|         246|   -5.601824|   -7.494603|    0.823975|    0.012023|
|         247|   -5.605191|   -7.495929|    0.823976|    0.012024|
|         248|   -5.608978|   -7.497387|    0.823978|    0.012024|
|         249|   -5.613631|   -7.498988|    0.823979|    0.012024|
|         250|   -5.619382|   -7.500735|    0.823980|    0.012024|
|         251|   -5.626242|   -7.502630|    0.823982|    0.012024|
|         252|   -5.634045|   -7.504675|    0.823983|    0.012024|
|         253|   -5.642507|   -7.506869|    0.823985|    0.012024|
|         254|   -5.651304|   -7.509209|    0.823986|    0.012024|
|         255|   -5.660143|   -7.511696|    0.823988|    0.012024|
|         256|   -5.668809|   -7.514326|    0.823989|    0.012025|
|         257|   -5.677197|   -7.517098|    0.823990|    0.012025|
|         258|   -5.685310|   -7.520008|    0.823992|    0.012025|
|         259|   -5.693229|   -7.523053|    0.823993|    0.012025|
|         260|   -5.701077|   -7.526231|    0.823995|    0.012025|
|         261|   -5.708985|   -7.529539|    0.823996|    0.012025|
|         262|   -5.717056|   -7.532976|    0.823997|    0.012025|
|         263|   -5.725359|   -7.536544|    0.823999|    0.012025|
|         264|   -5.733922|   -7.540239|    0.824000|    0.012025|
|         265|   -5.742740|   -7.544058|    0.824001|    0.012025|
|         266|   -5.751788|   -7.547998|    0.824003|    0.012025|
|         267|   -5.761030|   -7.552060|    0.824004|    0.012025|
|         268|   -5.770427|   -7.556246|    0.824005|    0.012025|
|         269|   -5.779949|   -7.560560|    0.824006|    0.012025|
|         270|   -5.789566|   -7.565005|    0.824007|    0.012025|
|         271|   -5.799249|   -7.569586|    0.824009|    0.012025|
|         272|   -5.808967|   -7.574310|    0.824010|    0.012025|
|         273|   -5.818682|   -7.579186|    0.824011|    0.012025|
|         274|   -5.828344|   -7.584223|    0.824012|    0.012025|
|         275|   -5.837895|   -7.589432|    0.824013|    0.012025|
|         276|   -5.847265|   -7.594818|    0.824014|    0.012025|
|         277|   -5.856382|   -7.600390|    0.824015|    0.012025|
|         278|   -5.865167|   -7.606155|    0.824015|    0.012025|
|         279|   -5.873548|   -7.612121|    0.824016|    0.012025|
|         280|   -5.881454|   -7.618302|    0.824017|    0.012025|
|         281|   -5.888828|   -7.624699|    0.824017|    0.012025|
|         282|   -5.895623|   -7.631312|    0.824018|    0.012025|
|         283|   -5.901808|   -7.638139|    0.824019|    0.012025|
|         284|   -5.907368|   -7.645179|    0.824019|    0.012024|
|         285|   -5.912299|   -7.652429|    0.824019|    0.012024|
|         286|   -5.916619|   -7.659889|    0.824020|    0.012024|
|         287|   -5.920357|   -7.667551|    0.824020|    0.012024|
|         288|   -5.923551|   -7.675403|    0.824020|    0.012024|
|         289|   -5.926250|   -7.683435|    0.824021|    0.012024|
|         290|   -5.928510|   -7.691635|    0.824021|    0.012024|
|         291|   -5.930388|   -7.699990|    0.824021|    0.012024|
|         292|   -5.931944|   -7.708488|    0.824021|    0.012024|
|         293|   -5.933235|   -7.717115|    0.824021|    0.012024|
|         294|   -5.934316|   -7.725858|    0.824021|    0.012023|
|         295|   -5.935235|   -7.734707|    0.824021|    0.012023|
|         296|   -5.936037|   -7.743649|    0.824020|    0.012023|
|         297|   -5.936760|   -7.752671|    0.824020|    0.012023|
|         298|   -5.937435|   -7.761760|    0.824020|    0.012023|
|         299|   -5.938090|   -7.770905|    0.824020|    0.012023|
|         300|   -5.938752|   -7.780093|    0.824019|    0.012023|
|         301|   -5.939433|   -7.789308|    0.824019|    0.012021|
+-----------------------------------------------------------------------+
|Fixed CL Mode                           |Value                         |
+-----------------------------------------------------------------------+
|Current CL                              |0.824019                      |
|Target CL                               |0.824                         |
|Previous AOA                            |2.79085                       |
|Changed AoA by                          |-9.69837e-05                  |
+-----------------------------------------------------------------------+
+----------------------------------------------------------------+
|  Inner_Iter|    rms[Rho]|     rms[nu]|          CL|          CD|
+----------------------------------------------------------------+
|         302|   -4.206639|   -7.779131|    0.824019|    0.012021|
|         303|   -4.591946|   -7.797815|    0.824018|    0.012021|
|         304|   -4.839303|   -7.809663|    0.824018|    0.012021|
|         305|   -4.920292|   -7.820136|    0.824018|    0.012021|
|         306|   -4.974592|   -7.830079|    0.824017|    0.012021|
|         307|   -5.044483|   -7.839656|    0.824017|    0.012021|
|         308|   -5.130479|   -7.848882|    0.824016|    0.012021|
|         309|   -5.219073|   -7.857738|    0.824016|    0.012020|
|         310|   -5.292829|   -7.866192|    0.824015|    0.012020|
|         311|   -5.343561|   -7.874199|    0.824015|    0.012020|
|         312|   -5.374284|   -7.881716|    0.824015|    0.012020|
|         313|   -5.390345|   -7.888730|    0.824014|    0.012020|
|         314|   -5.396475|   -7.895250|    0.824014|    0.012020|
|         315|   -5.398420|   -7.901274|    0.824014|    0.012020|
|         316|   -5.402022|   -7.906790|    0.824013|    0.012020|
|         317|   -5.410944|   -7.911771|    0.824013|    0.012020|
|         318|   -5.425767|   -7.916199|    0.824013|    0.012020|
|         319|   -5.444542|   -7.920076|    0.824013|    0.012020|
|         320|   -5.464175|   -7.923420|    0.824012|    0.012020|
|         321|   -5.482130|   -7.926259|    0.824012|    0.012020|
|         322|   -5.497600|   -7.928631|    0.824012|    0.012019|
|         323|   -5.511392|   -7.930573|    0.824012|    0.012019|
|         324|   -5.524859|   -7.932137|    0.824012|    0.012019|
|         325|   -5.538904|   -7.933384|    0.824012|    0.012019|
|         326|   -5.553659|   -7.934381|    0.824013|    0.012019|
|         327|   -5.568682|   -7.935201|    0.824013|    0.012019|
|         328|   -5.583304|   -7.935921|    0.824013|    0.012019|
|         329|   -5.596874|   -7.936613|    0.824013|    0.012019|
|         330|   -5.608882|   -7.937342|    0.824013|    0.012019|
|         331|   -5.619051|   -7.938161|    0.824014|    0.012019|
|         332|   -5.627426|   -7.939116|    0.824014|    0.012019|
|         333|   -5.634413|   -7.940235|    0.824014|    0.012020|
|         334|   -5.640712|   -7.941538|    0.824015|    0.012020|
|         335|   -5.647129|   -7.943029|    0.824015|    0.012020|
|         336|   -5.654387|   -7.944702|    0.824016|    0.012020|
|         337|   -5.662969|   -7.946539|    0.824016|    0.012020|
|         338|   -5.673051|   -7.948514|    0.824017|    0.012020|
|         339|   -5.684483|   -7.950591|    0.824017|    0.012020|
|         340|   -5.696819|   -7.952728|    0.824017|    0.012020|
|         341|   -5.709386|   -7.954883|    0.824018|    0.012020|
|         342|   -5.721423|   -7.957013|    0.824018|    0.012020|
|         343|   -5.732258|   -7.959077|    0.824019|    0.012020|
|         344|   -5.741500|   -7.961034|    0.824019|    0.012020|
|         345|   -5.749150|   -7.962848|    0.824019|    0.012021|
|         346|   -5.755582|   -7.964488|    0.824020|    0.012021|
|         347|   -5.761406|   -7.965933|    0.824020|    0.012021|
|         348|   -5.767272|   -7.967165|    0.824020|    0.012021|
|         349|   -5.773702|   -7.968176|    0.824020|    0.012021|
|         350|   -5.780991|   -7.968968|    0.824020|    0.012021|
|         351|   -5.789182|   -7.969546|    0.824021|    0.012021|
|         352|   -5.798095|   -7.969928|    0.824021|    0.012021|
|         353|   -5.807399|   -7.970132|    0.824020|    0.012022|
|         354|   -5.816702|   -7.970184|    0.824020|    0.012022|
|         355|   -5.825643|   -7.970116|    0.824020|    0.012022|
|         356|   -5.833963|   -7.969962|    0.824020|    0.012022|
|         357|   -5.841545|   -7.969754|    0.824020|    0.012022|
|         358|   -5.848417|   -7.969528|    0.824019|    0.012022|
|         359|   -5.854713|   -7.969318|    0.824019|    0.012022|
|         360|   -5.860627|   -7.969156|    0.824019|    0.012022|
|         361|   -5.866357|   -7.969067|    0.824018|    0.012022|
|         362|   -5.872070|   -7.969073|    0.824018|    0.012022|
|         363|   -5.877883|   -7.969192|    0.824017|    0.012022|
|         364|   -5.883862|   -7.969436|    0.824016|    0.012022|
|         365|   -5.890032|   -7.969812|    0.824016|    0.012022|
|         366|   -5.896390|   -7.970319|    0.824015|    0.012022|
|         367|   -5.902922|   -7.970953|    0.824015|    0.012022|
|         368|   -5.909611|   -7.971701|    0.824014|    0.012023|
|         369|   -5.916443|   -7.972549|    0.824013|    0.012023|
|         370|   -5.923406|   -7.973477|    0.824012|    0.012023|
|         371|   -5.930491|   -7.974466|    0.824012|    0.012023|
|         372|   -5.937680|   -7.975496|    0.824011|    0.012023|
|         373|   -5.944950|   -7.976545|    0.824011|    0.012023|
|         374|   -5.952264|   -7.977594|    0.824010|    0.012023|
|         375|   -5.959572|   -7.978626|    0.824009|    0.012023|
|         376|   -5.966816|   -7.979629|    0.824009|    0.012023|
|         377|   -5.973927|   -7.980598|    0.824008|    0.012023|
|         378|   -5.980833|   -7.981527|    0.824008|    0.012022|
|         379|   -5.987459|   -7.982416|    0.824007|    0.012022|
|         380|   -5.993730|   -7.983265|    0.824007|    0.012022|
|         381|   -5.999577|   -7.984081|    0.824007|    0.012022|
|         382|   -6.004938|   -7.984877|    0.824007|    0.012022|
|         383|   -6.009759|   -7.985671|    0.824006|    0.012022|
|         384|   -6.013998|   -7.986483|    0.824006|    0.012022|
|         385|   -6.017624|   -7.987337|    0.824006|    0.012022|
|         386|   -6.020623|   -7.988260|    0.824006|    0.012022|
|         387|   -6.022994|   -7.989277|    0.824006|    0.012022|
|         388|   -6.024753|   -7.990415|    0.824007|    0.012022|
|         389|   -6.025928|   -7.991698|    0.824007|    0.012022|
|         390|   -6.026563|   -7.993149|    0.824007|    0.012022|
|         391|   -6.026709|   -7.994787|    0.824007|    0.012022|
|         392|   -6.026427|   -7.996630|    0.824007|    0.012022|
|         393|   -6.025784|   -7.998691|    0.824008|    0.012022|
|         394|   -6.024848|   -8.000978|    0.824008|    0.012022|
|         395|   -6.023688|   -8.003498|    0.824009|    0.012022|
|         396|   -6.022371|   -8.006253|    0.824009|    0.012021|
|         397|   -6.020961|   -8.009240|    0.824009|    0.012021|
|         398|   -6.019516|   -8.012456|    0.824010|    0.012021|
|         399|   -6.018089|   -8.015891|    0.824010|    0.012021|
|         400|   -6.016727|   -8.019536|    0.824011|    0.012021|
|         401|   -6.015472|   -8.023378|    0.824012|    0.012020|
+-----------------------------------------------------------------------+
|Fixed CL Mode                           |Value                         |
+-----------------------------------------------------------------------+
|Current CL                              |0.824012                      |
|Target CL                               |0.824                         |
|Previous AOA                            |2.79075                       |
|Changed AoA by                          |-5.48474e-05                  |
+-----------------------------------------------------------------------+
+----------------------------------------------------------------+
|  Inner_Iter|    rms[Rho]|     rms[nu]|          CL|          CD|
+----------------------------------------------------------------+
|         402|   -4.453980|   -8.008845|    0.824012|    0.012020|
|         403|   -4.836837|   -8.022121|    0.824013|    0.012020|
|         404|   -5.077103|   -8.029205|    0.824013|    0.012020|
|         405|   -5.154351|   -8.035171|    0.824014|    0.012020|
|         406|   -5.207269|   -8.040801|    0.824014|    0.012020|
|         407|   -5.275427|   -8.046281|    0.824015|    0.012020|
|         408|   -5.358698|   -8.051684|    0.824015|    0.012020|
|         409|   -5.444286|   -8.057057|    0.824016|    0.012020|
|         410|   -5.516646|   -8.062429|    0.824017|    0.012019|
|         411|   -5.568869|   -8.067810|    0.824017|    0.012019|
|         412|   -5.603333|   -8.073208|    0.824018|    0.012019|
|         413|   -5.623909|   -8.078648|    0.824018|    0.012019|
|         414|   -5.634018|   -8.084164|    0.824019|    0.012019|
|         415|   -5.638657|   -8.089781|    0.824019|    0.012019|
|         416|   -5.643569|   -8.095507|    0.824020|    0.012019|
|         417|   -5.652715|   -8.101342|    0.824020|    0.012019|
|         418|   -5.667097|   -8.107287|    0.824021|    0.012019|
|         419|   -5.685227|   -8.113350|    0.824021|    0.012019|
|         420|   -5.704501|   -8.119542|    0.824022|    0.012019|
|         421|   -5.722803|   -8.125871|    0.824022|    0.012019|
|         422|   -5.739523|   -8.132339|    0.824023|    0.012019|
|         423|   -5.755391|   -8.138938|    0.824023|    0.012018|
|         424|   -5.771492|   -8.145654|    0.824023|    0.012018|
|         425|   -5.788386|   -8.152469|    0.824024|    0.012018|
|         426|   -5.805827|   -8.159363|    0.824024|    0.012018|
|         427|   -5.823007|   -8.166319|    0.824024|    0.012018|
|         428|   -5.838951|   -8.173316|    0.824025|    0.012018|
|         429|   -5.852848|   -8.180343|    0.824025|    0.012018|
|         430|   -5.864228|   -8.187386|    0.824025|    0.012018|
|         431|   -5.873037|   -8.194434|    0.824025|    0.012018|
|         432|   -5.879656|   -8.201473|    0.824026|    0.012018|
|         433|   -5.884827|   -8.208489|    0.824026|    0.012018|
|         434|   -5.889489|   -8.215468|    0.824026|    0.012018|
|         435|   -5.894552|   -8.222394|    0.824026|    0.012018|
|         436|   -5.900711|   -8.229248|    0.824026|    0.012018|
|         437|   -5.908332|   -8.236013|    0.824026|    0.012018|
|         438|   -5.917424|   -8.242670|    0.824026|    0.012018|
|         439|   -5.927663|   -8.249202|    0.824026|    0.012018|
|         440|   -5.938454|   -8.255595|    0.824026|    0.012018|
|         441|   -5.949033|   -8.261837|    0.824026|    0.012018|
|         442|   -5.958628|   -8.267920|    0.824026|    0.012018|
|         443|   -5.966646|   -8.273839|    0.824026|    0.012018|
|         444|   -5.972839|   -8.279595|    0.824026|    0.012018|
|         445|   -5.977369|   -8.285187|    0.824026|    0.012018|
|         446|   -5.980737|   -8.290620|    0.824026|    0.012018|
|         447|   -5.983617|   -8.295898|    0.824026|    0.012018|
|         448|   -5.986659|   -8.301025|    0.824026|    0.012018|
|         449|   -5.990347|   -8.306008|    0.824026|    0.012019|
|         450|   -5.994930|   -8.310847|    0.824026|    0.012019|
|         451|   -6.000421|   -8.315545|    0.824025|    0.012019|
|         452|   -6.006638|   -8.320102|    0.824025|    0.012019|
|         453|   -6.013286|   -8.324525|    0.824025|    0.012019|
|         454|   -6.020036|   -8.328809|    0.824025|    0.012019|
|         455|   -6.026601|   -8.332954|    0.824025|    0.012019|
|         456|   -6.032792|   -8.336959|    0.824024|    0.012019|
|         457|   -6.038540|   -8.340828|    0.824024|    0.012019|
|         458|   -6.043887|   -8.344564|    0.824024|    0.012019|
|         459|   -6.048950|   -8.348172|    0.824024|    0.012019|
|         460|   -6.053884|   -8.351658|    0.824023|    0.012019|
|         461|   -6.058837|   -8.355030|    0.824023|    0.012019|
|         462|   -6.063924|   -8.358300|    0.824023|    0.012019|
|         463|   -6.069221|   -8.361483|    0.824022|    0.012019|
|         464|   -6.074758|   -8.364593|    0.824022|    0.012019|
|         465|   -6.080539|   -8.367652|    0.824021|    0.012019|
|         466|   -6.086547|   -8.370680|    0.824021|    0.012019|
|         467|   -6.092759|   -8.373705|    0.824021|    0.012020|
|         468|   -6.099160|   -8.376754|    0.824020|    0.012020|
|         469|   -6.105739|   -8.379857|    0.824020|    0.012020|
|         470|   -6.112497|   -8.383045|    0.824019|    0.012020|
|         471|   -6.119439|   -8.386347|    0.824019|    0.012020|
|         472|   -6.126574|   -8.389793|    0.824018|    0.012020|
|         473|   -6.133907|   -8.393406|    0.824018|    0.012020|
|         474|   -6.141443|   -8.397206|    0.824018|    0.012020|
|         475|   -6.149180|   -8.401205|    0.824017|    0.012020|
|         476|   -6.157111|   -8.405407|    0.824017|    0.012020|
|         477|   -6.165227|   -8.409807|    0.824016|    0.012020|
|         478|   -6.173515|   -8.414388|    0.824016|    0.012020|
|         479|   -6.181963|   -8.419121|    0.824016|    0.012020|
|         480|   -6.190557|   -8.423965|    0.824015|    0.012020|
|         481|   -6.199283|   -8.428866|    0.824015|    0.012020|
|         482|   -6.208128|   -8.433760|    0.824015|    0.012020|
|         483|   -6.217078|   -8.438573|    0.824014|    0.012020|
|         484|   -6.226120|   -8.443224|    0.824014|    0.012020|
|         485|   -6.235238|   -8.447631|    0.824014|    0.012020|
|         486|   -6.244417|   -8.451711|    0.824014|    0.012020|
|         487|   -6.253638|   -8.455390|    0.824013|    0.012020|
|         488|   -6.262883|   -8.458605|    0.824013|    0.012020|
|         489|   -6.272129|   -8.461308|    0.824013|    0.012020|
|         490|   -6.281354|   -8.463470|    0.824013|    0.012020|
|         491|   -6.290530|   -8.465088|    0.824013|    0.012020|
|         492|   -6.299630|   -8.466182|    0.824013|    0.012020|
|         493|   -6.308623|   -8.466794|    0.824013|    0.012020|
|         494|   -6.317474|   -8.466989|    0.824013|    0.012020|
|         495|   -6.326147|   -8.466848|    0.824013|    0.012020|
|         496|   -6.334606|   -8.466463|    0.824013|    0.012020|
|         497|   -6.342811|   -8.465932|    0.824013|    0.012020|
|         498|   -6.350722|   -8.465356|    0.824013|    0.012020|
|         499|   -6.358302|   -8.464828|    0.824013|    0.012019|
|         500|   -6.365514|   -8.464437|    0.824013|    0.012019|
|         501|   -6.372326|   -8.464255|    0.824013|    0.012018|
+-----------------------------------------------------------------------+
|Fixed CL Mode                           |Value                         |
+-----------------------------------------------------------------------+
|Current CL                              |0.824013                      |
|Target CL                               |0.824                         |
|Previous AOA                            |2.79069                       |
|Changed AoA by                          |-6.40647e-05                  |
+-----------------------------------------------------------------------+
+----------------------------------------------------------------+
|  Inner_Iter|    rms[Rho]|     rms[nu]|          CL|          CD|
+----------------------------------------------------------------+
|         502|   -4.386717|   -8.324451|    0.824013|    0.012018|
|         503|   -4.770390|   -8.384729|    0.824013|    0.012018|
|         504|   -5.012147|   -8.406248|    0.824013|    0.012018|
|         505|   -5.089880|   -8.419206|    0.824013|    0.012018|
|         506|   -5.143320|   -8.429203|    0.824014|    0.012018|
|         507|   -5.212867|   -8.437602|    0.824014|    0.012018|
|         508|   -5.299001|   -8.444847|    0.824014|    0.012018|
|         509|   -5.389407|   -8.451196|    0.824014|    0.012018|
|         510|   -5.468133|   -8.456790|    0.824014|    0.012018|
|         511|   -5.526853|   -8.461618|    0.824015|    0.012018|
|         512|   -5.566646|   -8.465665|    0.824015|    0.012018|
|         513|   -5.590679|   -8.469062|    0.824015|    0.012018|
|         514|   -5.602289|   -8.472005|    0.824015|    0.012018|
|         515|   -5.607199|   -8.474633|    0.824015|    0.012018|
|         516|   -5.612239|   -8.476953|    0.824015|    0.012018|
|         517|   -5.622152|   -8.478896|    0.824016|    0.012017|
|         518|   -5.638206|   -8.480418|    0.824016|    0.012017|
|         519|   -5.658744|   -8.481552|    0.824016|    0.012017|
|         520|   -5.680709|   -8.482370|    0.824016|    0.012017|
|         521|   -5.701511|   -8.482941|    0.824016|    0.012017|
|         522|   -5.720326|   -8.483301|    0.824016|    0.012017|
|         523|   -5.738019|   -8.483429|    0.824017|    0.012017|
|         524|   -5.755980|   -8.483292|    0.824017|    0.012017|
|         525|   -5.775008|   -8.482854|    0.824017|    0.012017|
|         526|   -5.794930|   -8.482115|    0.824017|    0.012017|
|         527|   -5.814843|   -8.481072|    0.824017|    0.012017|
|         528|   -5.833577|   -8.479760|    0.824017|    0.012017|
|         529|   -5.850086|   -8.478255|    0.824017|    0.012017|
|         530|   -5.863680|   -8.476601|    0.824017|    0.012017|
|         531|   -5.874161|   -8.474858|    0.824017|    0.012017|
|         532|   -5.881899|   -8.473064|    0.824017|    0.012017|
|         533|   -5.887773|   -8.471254|    0.824017|    0.012017|
|         534|   -5.892974|   -8.469443|    0.824017|    0.012017|
|         535|   -5.898705|   -8.467633|    0.824017|    0.012017|
|         536|   -5.905917|   -8.465811|    0.824017|    0.012017|
|         537|   -5.915166|   -8.463952|    0.824017|    0.012017|
|         538|   -5.926552|   -8.462027|    0.824017|    0.012017|
|         539|   -5.939735|   -8.460003|    0.824017|    0.012017|
|         540|   -5.953976|   -8.457850|    0.824017|    0.012017|
|         541|   -5.968238|   -8.455544|    0.824017|    0.012017|
|         542|   -5.981383|   -8.453067|    0.824016|    0.012017|
|         543|   -5.992448|   -8.450404|    0.824016|    0.012017|
|         544|   -6.000945|   -8.447555|    0.824016|    0.012017|
|         545|   -6.007015|   -8.444516|    0.824016|    0.012017|
|         546|   -6.011361|   -8.441295|    0.824016|    0.012017|
|         547|   -6.014993|   -8.437899|    0.824016|    0.012017|
|         548|   -6.018915|   -8.434335|    0.824016|    0.012017|
|         549|   -6.023897|   -8.430614|    0.824015|    0.012017|
|         550|   -6.030358|   -8.426743|    0.824015|    0.012018|
|         551|   -6.038363|   -8.422736|    0.824015|    0.012018|
|         552|   -6.047677|   -8.418597|    0.824015|    0.012018|
|         553|   -6.057867|   -8.414354|    0.824014|    0.012018|
|         554|   -6.068418|   -8.410011|    0.824014|    0.012018|
|         555|   -6.078848|   -8.405585|    0.824014|    0.012018|
|         556|   -6.088811|   -8.401096|    0.824014|    0.012018|
|         557|   -6.098145|   -8.396568|    0.824013|    0.012018|
|         558|   -6.106880|   -8.392035|    0.824013|    0.012018|
|         559|   -6.115193|   -8.387527|    0.824012|    0.012018|
|         560|   -6.123339|   -8.383083|    0.824012|    0.012018|
|         561|   -6.131581|   -8.378743|    0.824012|    0.012018|
|         562|   -6.140138|   -8.374548|    0.824011|    0.012018|
|         563|   -6.149156|   -8.370542|    0.824011|    0.012018|
|         564|   -6.158713|   -8.366767|    0.824010|    0.012018|
|         565|   -6.168826|   -8.363267|    0.824010|    0.012018|
|         566|   -6.179473|   -8.360081|    0.824009|    0.012018|
|         567|   -6.190618|   -8.357245|    0.824009|    0.012018|
|         568|   -6.202226|   -8.354792|    0.824008|    0.012018|
|         569|   -6.214271|   -8.352746|    0.824008|    0.012018|
|         570|   -6.226742|   -8.351125|    0.824007|    0.012018|
|         571|   -6.239633|   -8.349938|    0.824007|    0.012018|
|         572|   -6.252938|   -8.349185|    0.824006|    0.012019|
|         573|   -6.266644|   -8.348855|    0.824006|    0.012019|
|         574|   -6.280722|   -8.348926|    0.824005|    0.012019|
|         575|   -6.295122|   -8.349367|    0.824005|    0.012019|
|         576|   -6.309773|   -8.350135|    0.824005|    0.012019|
|         577|   -6.324586|   -8.351176|    0.824004|    0.012019|
|         578|   -6.339449|   -8.352428|    0.824004|    0.012019|
|         579|   -6.354240|   -8.353823|    0.824003|    0.012019|
|         580|   -6.368822|   -8.355286|    0.824003|    0.012019|
|         581|   -6.383055|   -8.356740|    0.824003|    0.012019|
|         582|   -6.396796|   -8.358108|    0.824003|    0.012019|
|         583|   -6.409906|   -8.359320|    0.824002|    0.012019|
|         584|   -6.422257|   -8.360311|    0.824002|    0.012019|
|         585|   -6.433735|   -8.361028|    0.824002|    0.012019|
|         586|   -6.444248|   -8.361431|    0.824002|    0.012019|
|         587|   -6.453733|   -8.361496|    0.824002|    0.012019|
|         588|   -6.462156|   -8.361217|    0.824002|    0.012019|
|         589|   -6.469515|   -8.360603|    0.824002|    0.012019|
|         590|   -6.475841|   -8.359681|    0.824002|    0.012019|
|         591|   -6.481191|   -8.358492|    0.824002|    0.012019|
|         592|   -6.485644|   -8.357086|    0.824002|    0.012019|
|         593|   -6.489294|   -8.355524|    0.824002|    0.012019|
|         594|   -6.492242|   -8.353867|    0.824002|    0.012019|
|         595|   -6.494592|   -8.352183|    0.824002|    0.012019|
|         596|   -6.496442|   -8.350532|    0.824003|    0.012019|
|         597|   -6.497881|   -8.348973|    0.824003|    0.012019|
|         598|   -6.498989|   -8.347555|    0.824003|    0.012019|
|         599|   -6.499829|   -8.346322|    0.824003|    0.012019|
|         600|   -6.500457|   -8.345302|    0.824004|    0.012019|
|         601|   -6.500911|   -8.344518|    0.824004|    0.012019|
+-----------------------------------------------------------------------+
|Fixed CL Mode                           |Value                         |
+-----------------------------------------------------------------------+
|Current CL                              |0.824004                      |
|Target CL                               |0.824                         |
|Previous AOA                            |2.79063                       |
|Changed AoA by                          |-1.81192e-05                  |
+-----------------------------------------------------------------------+
+----------------------------------------------------------------+
|  Inner_Iter|    rms[Rho]|     rms[nu]|          CL|          CD|
+----------------------------------------------------------------+
|         602|   -4.935103|   -8.334863|    0.824004|    0.012019|
|         603|   -5.317026|   -8.339074|    0.824005|    0.012019|
|         604|   -5.552712|   -8.340383|    0.824005|    0.012019|
|         605|   -5.626276|   -8.341296|    0.824005|    0.012019|
|         606|   -5.677476|   -8.342161|    0.824006|    0.012019|
|         607|   -5.744517|   -8.343034|    0.824006|    0.012018|
|         608|   -5.827140|   -8.343914|    0.824006|    0.012018|
|         609|   -5.913441|   -8.344785|    0.824007|    0.012018|
|         610|   -5.989035|   -8.345625|    0.824007|    0.012018|
|         611|   -6.046913|   -8.346405|    0.824008|    0.012018|
|         612|   -6.087970|   -8.347096|    0.824008|    0.012018|
|         613|   -6.114359|   -8.347678|    0.824008|    0.012018|
|         614|   -6.128316|   -8.348144|    0.824009|    0.012018|
|         615|   -6.134634|   -8.348487|    0.824009|    0.012018|
|         616|   -6.139664|   -8.348701|    0.824009|    0.012018|
|         617|   -6.148106|   -8.348789|    0.824010|    0.012018|
|         618|   -6.161460|   -8.348760|    0.824010|    0.012018|
|         619|   -6.178514|   -8.348634|    0.824010|    0.012018|
|         620|   -6.196853|   -8.348438|    0.824010|    0.012018|
|         621|   -6.214530|   -8.348207|    0.824011|    0.012018|
|         622|   -6.231058|   -8.347972|    0.824011|    0.012018|
|         623|   -6.247183|   -8.347767|    0.824011|    0.012018|
|         624|   -6.263875|   -8.347625|    0.824011|    0.012018|
|         625|   -6.281463|   -8.347579|    0.824011|    0.012018|
|         626|   -6.299412|   -8.347660|    0.824012|    0.012018|
|         627|   -6.316621|   -8.347899|    0.824012|    0.012018|
|         628|   -6.331917|   -8.348322|    0.824012|    0.012018|
|         629|   -6.344463|   -8.348952|    0.824012|    0.012018|
|         630|   -6.353951|   -8.349806|    0.824012|    0.012018|
|         631|   -6.360626|   -8.350898|    0.824012|    0.012018|
|         632|   -6.365193|   -8.352233|    0.824012|    0.012018|
|         633|   -6.368648|   -8.353812|    0.824012|    0.012018|
|         634|   -6.372049|   -8.355626|    0.824012|    0.012018|
|         635|   -6.376301|   -8.357661|    0.824012|    0.012018|
|         636|   -6.381999|   -8.359897|    0.824012|    0.012018|
|         637|   -6.389359|   -8.362313|    0.824012|    0.012018|
|         638|   -6.398216|   -8.364880|    0.824012|    0.012018|
|         639|   -6.408079|   -8.367570|    0.824012|    0.012018|
|         640|   -6.418200|   -8.370354|    0.824012|    0.012017|
|         641|   -6.427709|   -8.373201|    0.824012|    0.012017|
|         642|   -6.435782|   -8.376083|    0.824012|    0.012017|
|         643|   -6.441845|   -8.378975|    0.824012|    0.012017|
|         644|   -6.445726|   -8.381853|    0.824012|    0.012017|
|         645|   -6.447688|   -8.384697|    0.824012|    0.012017|
|         646|   -6.448320|   -8.387490|    0.824012|    0.012017|
|         647|   -6.448342|   -8.390219|    0.824012|    0.012017|
|         648|   -6.448411|   -8.392874|    0.824012|    0.012017|
|         649|   -6.448989|   -8.395449|    0.824011|    0.012018|
|         650|   -6.450292|   -8.397937|    0.824011|    0.012018|
|         651|   -6.452306|   -8.400338|    0.824011|    0.012018|
|         652|   -6.454850|   -8.402650|    0.824011|    0.012018|
|         653|   -6.457655|   -8.404874|    0.824011|    0.012018|
|         654|   -6.460444|   -8.407006|    0.824011|    0.012018|
|         655|   -6.463000|   -8.409043|    0.824011|    0.012018|
|         656|   -6.465203|   -8.410981|    0.824011|    0.012018|
|         657|   -6.467041|   -8.412816|    0.824011|    0.012018|
|         658|   -6.468591|   -8.414543|    0.824011|    0.012018|
|         659|   -6.469986|   -8.416155|    0.824011|    0.012018|
|         660|   -6.471374|   -8.417645|    0.824011|    0.012018|
|         661|   -6.472891|   -8.419008|    0.824010|    0.012018|
|         662|   -6.474638|   -8.420237|    0.824010|    0.012018|
|         663|   -6.476681|   -8.421330|    0.824010|    0.012018|
|         664|   -6.479049|   -8.422286|    0.824010|    0.012018|
|         665|   -6.481748|   -8.423109|    0.824010|    0.012018|
|         666|   -6.484770|   -8.423805|    0.824010|    0.012018|
|         667|   -6.488102|   -8.424387|    0.824010|    0.012018|
|         668|   -6.491731|   -8.424870|    0.824010|    0.012018|
|         669|   -6.495650|   -8.425274|    0.824010|    0.012018|
|         670|   -6.499853|   -8.425624|    0.824010|    0.012018|
|         671|   -6.504339|   -8.425944|    0.824009|    0.012018|
|         672|   -6.509101|   -8.426263|    0.824009|    0.012018|
|         673|   -6.514130|   -8.426609|    0.824009|    0.012018|
|         674|   -6.519412|   -8.427011|    0.824009|    0.012019|
|         675|   -6.524925|   -8.427494|    0.824009|    0.012019|
|         676|   -6.530643|   -8.428082|    0.824009|    0.012019|
|         677|   -6.536535|   -8.428792|    0.824009|    0.012019|
|         678|   -6.542567|   -8.429641|    0.824009|    0.012019|
|         679|   -6.548703|   -8.430635|    0.824009|    0.012019|
|         680|   -6.554907|   -8.431779|    0.824008|    0.012019|
|         681|   -6.561141|   -8.433069|    0.824008|    0.012019|
|         682|   -6.567372|   -8.434494|    0.824008|    0.012019|
|         683|   -6.573568|   -8.436040|    0.824008|    0.012019|
|         684|   -6.579699|   -8.437685|    0.824008|    0.012019|
|         685|   -6.585739|   -8.439405|    0.824008|    0.012019|
|         686|   -6.591667|   -8.441171|    0.824008|    0.012019|
|         687|   -6.597467|   -8.442952|    0.824008|    0.012019|
|         688|   -6.603126|   -8.444716|    0.824008|    0.012019|
|         689|   -6.608638|   -8.446432|    0.824008|    0.012019|
|         690|   -6.614001|   -8.448071|    0.824008|    0.012019|
|         691|   -6.619219|   -8.449608|    0.824008|    0.012019|
|         692|   -6.624298|   -8.451021|    0.824008|    0.012019|
|         693|   -6.629249|   -8.452296|    0.824008|    0.012019|
|         694|   -6.634084|   -8.453424|    0.824008|    0.012019|
|         695|   -6.638819|   -8.454402|    0.824007|    0.012019|
|         696|   -6.643470|   -8.455234|    0.824007|    0.012019|
|         697|   -6.648051|   -8.455932|    0.824008|    0.012019|
|         698|   -6.652578|   -8.456508|    0.824008|    0.012019|
|         699|   -6.657066|   -8.456984|    0.824008|    0.012019|
|         700|   -6.661524|   -8.457381|    0.824008|    0.012019|
|         701|   -6.665963|   -8.457722|    0.824008|    0.012019|
+-----------------------------------------------------------------------+
|Fixed CL Mode                           |Value                         |
+-----------------------------------------------------------------------+
|Current CL                              |0.824008                      |
|Target CL                               |0.824                         |
|Previous AOA                            |2.79061                       |
|Changed AoA by                          |-3.79773e-05                  |
+-----------------------------------------------------------------------+
+----------------------------------------------------------------+
|  Inner_Iter|    rms[Rho]|     rms[nu]|          CL|          CD|
+----------------------------------------------------------------+
|         702|   -4.613881|   -8.399867|    0.824008|    0.012019|
|         703|   -4.998056|   -8.427761|    0.824008|    0.012019|
|         704|   -5.240867|   -8.436658|    0.824008|    0.012019|
|         705|   -5.318843|   -8.441710|    0.824008|    0.012019|
|         706|   -5.372228|   -8.445428|    0.824008|    0.012019|
|         707|   -5.441843|   -8.448420|    0.824008|    0.012019|
|         708|   -5.528232|   -8.450889|    0.824008|    0.012019|
|         709|   -5.619019|   -8.452959|    0.824008|    0.012019|
|         710|   -5.698066|   -8.454710|    0.824008|    0.012019|
|         711|   -5.756871|   -8.456173|    0.824008|    0.012019|
|         712|   -5.796492|   -8.457390|    0.824008|    0.012019|
|         713|   -5.820179|   -8.458435|    0.824009|    0.012019|
|         714|   -5.831393|   -8.459413|    0.824009|    0.012019|
|         715|   -5.835982|   -8.460401|    0.824009|    0.012019|
|         716|   -5.840846|   -8.461419|    0.824009|    0.012019|
|         717|   -5.850731|   -8.462461|    0.824009|    0.012019|
|         718|   -5.866865|   -8.463520|    0.824009|    0.012019|
|         719|   -5.887520|   -8.464607|    0.824009|    0.012019|
|         720|   -5.909543|   -8.465742|    0.824009|    0.012019|
|         721|   -5.930242|   -8.466941|    0.824009|    0.012019|
|         722|   -5.948731|   -8.468203|    0.824009|    0.012019|
|         723|   -5.965866|   -8.469515|    0.824009|    0.012019|
|         724|   -5.983060|   -8.470855|    0.824009|    0.012019|
|         725|   -6.001151|   -8.472203|    0.824010|    0.012019|
|         726|   -6.020011|   -8.473548|    0.824010|    0.012019|
|         727|   -6.038797|   -8.474885|    0.824010|    0.012019|
|         728|   -6.056412|   -8.476220|    0.824010|    0.012019|
|         729|   -6.071885|   -8.477550|    0.824010|    0.012019|
|         730|   -6.084592|   -8.478895|    0.824010|    0.012019|
|         731|   -6.094370|   -8.480269|    0.824010|    0.012019|
|         732|   -6.101584|   -8.481681|    0.824010|    0.012019|
|         733|   -6.107084|   -8.483137|    0.824010|    0.012019|
|         734|   -6.112012|   -8.484642|    0.824010|    0.012019|
|         735|   -6.117522|   -8.486192|    0.824010|    0.012019|
|         736|   -6.124537|   -8.487784|    0.824010|    0.012019|
|         737|   -6.133604|   -8.489409|    0.824010|    0.012019|
|         738|   -6.144837|   -8.491056|    0.824010|    0.012019|
|         739|   -6.157932|   -8.492715|    0.824010|    0.012019|
|         740|   -6.172201|   -8.494373|    0.824010|    0.012019|
|         741|   -6.186674|   -8.496022|    0.824010|    0.012019|
|         742|   -6.200269|   -8.497654|    0.824010|    0.012018|
|         743|   -6.212057|   -8.499266|    0.824010|    0.012018|
|         744|   -6.221540|   -8.500854|    0.824010|    0.012018|
|         745|   -6.228809|   -8.502420|    0.824010|    0.012018|
|         746|   -6.234500|   -8.503967|    0.824010|    0.012018|
|         747|   -6.239561|   -8.505496|    0.824010|    0.012018|
|         748|   -6.244962|   -8.507012|    0.824010|    0.012018|
|         749|   -6.251469|   -8.508518|    0.824010|    0.012018|
|         750|   -6.259519|   -8.510017|    0.824010|    0.012018|
|         751|   -6.269202|   -8.511510|    0.824010|    0.012018|
|         752|   -6.280307|   -8.513013|    0.824009|    0.012018|
|         753|   -6.292413|   -8.514522|    0.824009|    0.012018|
|         754|   -6.304997|   -8.516042|    0.824009|    0.012018|
|         755|   -6.317551|   -8.517577|    0.824009|    0.012018|
|         756|   -6.329686|   -8.519134|    0.824009|    0.012018|
|         757|   -6.341196|   -8.520725|    0.824009|    0.012018|
|         758|   -6.352071|   -8.522361|    0.824009|    0.012018|
|         759|   -6.362463|   -8.524059|    0.824009|    0.012018|
|         760|   -6.372615|   -8.525835|    0.824008|    0.012018|
|         761|   -6.382792|   -8.527710|    0.824008|    0.012018|
|         762|   -6.393220|   -8.529705|    0.824008|    0.012018|
|         763|   -6.404057|   -8.531846|    0.824008|    0.012018|
|         764|   -6.415383|   -8.534158|    0.824008|    0.012018|
|         765|   -6.427214|   -8.536665|    0.824008|    0.012018|
|         766|   -6.439525|   -8.539396|    0.824007|    0.012018|
|         767|   -6.452273|   -8.542373|    0.824007|    0.012018|
|         768|   -6.465418|   -8.545619|    0.824007|    0.012018|
|         769|   -6.478933|   -8.549151|    0.824007|    0.012018|
|         770|   -6.492805|   -8.552981|    0.824007|    0.012018|
|         771|   -6.507035|   -8.557113|    0.824006|    0.012018|
|         772|   -6.521625|   -8.561544|    0.824006|    0.012018|
|         773|   -6.536571|   -8.566262|    0.824006|    0.012018|
|         774|   -6.551854|   -8.571242|    0.824006|    0.012018|
|         775|   -6.567435|   -8.576452|    0.824006|    0.012018|
|         776|   -6.583249|   -8.581846|    0.824006|    0.012018|
|         777|   -6.599214|   -8.587369|    0.824005|    0.012018|
|         778|   -6.615224|   -8.592955|    0.824005|    0.012018|
|         779|   -6.631160|   -8.598533|    0.824005|    0.012018|
|         780|   -6.646890|   -8.604024|    0.824005|    0.012018|
|         781|   -6.662278|   -8.609348|    0.824005|    0.012018|
|         782|   -6.677182|   -8.614427|    0.824005|    0.012018|
|         783|   -6.691467|   -8.619188|    0.824005|    0.012018|
|         784|   -6.705002|   -8.623568|    0.824005|    0.012018|
|         785|   -6.717674|   -8.627521|    0.824005|    0.012018|
|         786|   -6.729390|   -8.631013|    0.824005|    0.012018|
|         787|   -6.740080|   -8.634036|    0.824005|    0.012018|
|         788|   -6.749711|   -8.636596|    0.824005|    0.012018|
|         789|   -6.758277|   -8.638725|    0.824005|    0.012018|
|         790|   -6.765809|   -8.640469|    0.824005|    0.012018|
|         791|   -6.772366|   -8.641892|    0.824005|    0.012018|
|         792|   -6.778033|   -8.643067|    0.824006|    0.012018|
|         793|   -6.782910|   -8.644076|    0.824006|    0.012018|
|         794|   -6.787112|   -8.645003|    0.824006|    0.012019|
|         795|   -6.790753|   -8.645932|    0.824006|    0.012019|
|         796|   -6.793947|   -8.646941|    0.824006|    0.012019|
|         797|   -6.796801|   -8.648101|    0.824007|    0.012019|
|         798|   -6.799410|   -8.649471|    0.824007|    0.012019|
|         799|   -6.801856|   -8.651099|    0.824007|    0.012019|
|         800|   -6.804210|   -8.653021|    0.824007|    0.012019|
|         801|   -6.806528|   -8.655258|    0.824008|    0.012018|
+-----------------------------------------------------------------------+
|Fixed CL Mode                           |Value                         |
+-----------------------------------------------------------------------+
|Current CL                              |0.824008                      |
|Target CL                               |0.824                         |
|Previous AOA                            |2.79057                       |
|Changed AoA by                          |-3.64831e-05                  |
+-----------------------------------------------------------------------+
+----------------------------------------------------------------+
|  Inner_Iter|    rms[Rho]|     rms[nu]|          CL|          CD|
+----------------------------------------------------------------+
|         802|   -4.631278|   -8.540633|    0.824008|    0.012018|
|         803|   -5.015281|   -8.594260|    0.824008|    0.012018|
|         804|   -5.257851|   -8.614316|    0.824008|    0.012018|
|         805|   -5.335933|   -8.627251|    0.824009|    0.012018|
|         806|   -5.389500|   -8.637778|    0.824009|    0.012018|
|         807|   -5.459260|   -8.646996|    0.824009|    0.012018|
|         808|   -5.545769|   -8.655202|    0.824009|    0.012018|
|         809|   -5.636675|   -8.662546|    0.824010|    0.012018|
|         810|   -5.715866|   -8.669091|    0.824010|    0.012018|
|         811|   -5.774867|   -8.674807|    0.824010|    0.012018|
|         812|   -5.814737|   -8.679700|    0.824010|    0.012018|
|         813|   -5.838682|   -8.683892|    0.824010|    0.012018|
|         814|   -5.850107|   -8.687608|    0.824011|    0.012018|
|         815|   -5.854840|   -8.691029|    0.824011|    0.012018|
|         816|   -5.859814|   -8.694210|    0.824011|    0.012018|
|         817|   -5.869829|   -8.697142|    0.824011|    0.012018|
|         818|   -5.886156|   -8.699825|    0.824011|    0.012018|
|         819|   -5.907096|   -8.702310|    0.824012|    0.012018|
|         820|   -5.929512|   -8.704684|    0.824012|    0.012018|
|         821|   -5.950708|   -8.707023|    0.824012|    0.012018|
|         822|   -5.969785|   -8.709367|    0.824012|    0.012018|
|         823|   -5.987588|   -8.711710|    0.824012|    0.012018|
|         824|   -6.005524|   -8.714025|    0.824012|    0.012019|
|         825|   -6.024415|   -8.716290|    0.824012|    0.012019|
|         826|   -6.044092|   -8.718502|    0.824012|    0.012019|
|         827|   -6.063648|   -8.720679|    0.824012|    0.012019|
|         828|   -6.081907|   -8.722851|    0.824012|    0.012019|
|         829|   -6.097825|   -8.725035|    0.824012|    0.012019|
|         830|   -6.110735|   -8.727313|    0.824012|    0.012019|
|         831|   -6.120474|   -8.729724|    0.824012|    0.012019|
|         832|   -6.127451|   -8.732301|    0.824012|    0.012018|
|         833|   -6.132584|   -8.735066|    0.824012|    0.012018|
|         834|   -6.137086|   -8.738025|    0.824012|    0.012018|
|         835|   -6.142164|   -8.741170|    0.824012|    0.012018|
|         836|   -6.148766|   -8.744474|    0.824012|    0.012018|
|         837|   -6.157438|   -8.747904|    0.824012|    0.012018|
|         838|   -6.168273|   -8.751418|    0.824012|    0.012018|
|         839|   -6.180933|   -8.754970|    0.824012|    0.012018|
|         840|   -6.194695|   -8.758517|    0.824012|    0.012018|
|         841|   -6.208553|   -8.762025|    0.824012|    0.012018|
|         842|   -6.221411|   -8.765464|    0.824012|    0.012018|
|         843|   -6.232350|   -8.768819|    0.824012|    0.012018|
|         844|   -6.240909|   -8.772084|    0.824011|    0.012018|
|         845|   -6.247232|   -8.775260|    0.824011|    0.012018|
|         846|   -6.252004|   -8.778358|    0.824011|    0.012018|
|         847|   -6.256202|   -8.781387|    0.824011|    0.012018|
|         848|   -6.260807|   -8.784359|    0.824011|    0.012018|
|         849|   -6.266577|   -8.787283|    0.824011|    0.012018|
|         850|   -6.273934|   -8.790163|    0.824010|    0.012018|
|         851|   -6.282953|   -8.792992|    0.824010|    0.012018|
|         852|   -6.293417|   -8.795805|    0.824010|    0.012018|
|         853|   -6.304906|   -8.798564|    0.824010|    0.012018|
|         854|   -6.316909|   -8.801249|    0.824010|    0.012018|
|         855|   -6.328937|   -8.803837|    0.824010|    0.012018|
|         856|   -6.340624|   -8.806302|    0.824009|    0.012018|
|         857|   -6.351779|   -8.808624|    0.824009|    0.012018|
|         858|   -6.362406|   -8.810782|    0.824009|    0.012018|
|         859|   -6.372657|   -8.812759|    0.824009|    0.012018|
|         860|   -6.382773|   -8.814541|    0.824008|    0.012018|
|         861|   -6.393009|   -8.816126|    0.824008|    0.012018|
|         862|   -6.403580|   -8.817514|    0.824008|    0.012018|
|         863|   -6.414630|   -8.818722|    0.824008|    0.012018|
|         864|   -6.426229|   -8.819777|    0.824007|    0.012018|
|         865|   -6.438382|   -8.820714|    0.824007|    0.012018|
|         866|   -6.451050|   -8.821586|    0.824007|    0.012018|
|         867|   -6.464175|   -8.822448|    0.824007|    0.012018|
|         868|   -6.477699|   -8.823363|    0.824006|    0.012018|
|         869|   -6.491570|   -8.824395|    0.824006|    0.012018|
|         870|   -6.505752|   -8.825607|    0.824006|    0.012018|
|         871|   -6.520211|   -8.827059|    0.824006|    0.012018|
|         872|   -6.534915|   -8.828798|    0.824005|    0.012018|
|         873|   -6.549820|   -8.830862|    0.824005|    0.012018|
|         874|   -6.564862|   -8.833270|    0.824005|    0.012018|
|         875|   -6.579950|   -8.836024|    0.824005|    0.012018|
|         876|   -6.594970|   -8.839108|    0.824004|    0.012018|
|         877|   -6.609781|   -8.842480|    0.824004|    0.012018|
|         878|   -6.624227|   -8.846079|    0.824004|    0.012018|
|         879|   -6.638136|   -8.849821|    0.824004|    0.012018|
|         880|   -6.651340|   -8.853604|    0.824004|    0.012018|
|         881|   -6.663672|   -8.857311|    0.824004|    0.012018|
|         882|   -6.674988|   -8.860814|    0.824004|    0.012018|
|         883|   -6.685166|   -8.863984|    0.824004|    0.012018|
|         884|   -6.694119|   -8.866697|    0.824003|    0.012018|
|         885|   -6.701799|   -8.868845|    0.824003|    0.012018|
|         886|   -6.708201|   -8.870344|    0.824003|    0.012018|
|         887|   -6.713363|   -8.871142|    0.824003|    0.012018|
|         888|   -6.717359|   -8.871225|    0.824003|    0.012018|
|         889|   -6.720299|   -8.870618|    0.824003|    0.012018|
|         890|   -6.722313|   -8.869386|    0.824004|    0.012018|
|         891|   -6.723548|   -8.867627|    0.824004|    0.012018|
|         892|   -6.724157|   -8.865466|    0.824004|    0.012018|
|         893|   -6.724290|   -8.863049|    0.824004|    0.012018|
|         894|   -6.724089|   -8.860529|    0.824004|    0.012018|
|         895|   -6.723680|   -8.858058|    0.824004|    0.012018|
|         896|   -6.723179|   -8.855785|    0.824004|    0.012018|
|         897|   -6.722679|   -8.853839|    0.824004|    0.012018|
|         898|   -6.722261|   -8.852335|    0.824005|    0.012018|
|         899|   -6.721989|   -8.851362|    0.824005|    0.012018|
|         900|   -6.721913|   -8.850986|    0.824005|    0.012018|
|         901|   -6.722069|   -8.851245|    0.824005|    0.012018|
+-----------------------------------------------------------------------+
|Fixed CL Mode                           |Value                         |
+-----------------------------------------------------------------------+
|Current CL                              |0.824005                      |
|Target CL                               |0.824                         |
|Previous AOA                            |2.79054                       |
[...]
|        5298|   -6.036820|   -7.954693|    0.824237|    0.012022|
|        5299|   -6.043476|   -7.958464|    0.824237|    0.012022|
|        5300|   -6.049746|   -7.962279|    0.824237|    0.012022|
|        5301|   -6.055590|   -7.966152|    0.824238|    0.012022|
|        5302|   -6.060980|   -7.970096|    0.824238|    0.012022|
|        5303|   -6.065901|   -7.974118|    0.824238|    0.012022|
|        5304|   -6.070347|   -7.978225|    0.824238|    0.012022|
|        5305|   -6.074327|   -7.982421|    0.824238|    0.012022|
|        5306|   -6.077859|   -7.986709|    0.824238|    0.012022|
|        5307|   -6.080972|   -7.991088|    0.824238|    0.012022|
|        5308|   -6.083705|   -7.995558|    0.824238|    0.012022|
|        5309|   -6.086103|   -8.000119|    0.824238|    0.012022|
|        5310|   -6.088217|   -8.004770|    0.824238|    0.012022|
|        5311|   -6.090101|   -8.009510|    0.824239|    0.012022|
|        5312|   -6.091813|   -8.014339|    0.824239|    0.012022|
|        5313|   -6.093412|   -8.019258|    0.824239|    0.012022|
|        5314|   -6.094951|   -8.024268|    0.824239|    0.012022|
|        5315|   -6.096483|   -8.029373|    0.824239|    0.012022|
|        5316|   -6.098054|   -8.034575|    0.824239|    0.012022|
|        5317|   -6.099710|   -8.039879|    0.824239|    0.012022|
|        5318|   -6.101487|   -8.045289|    0.824239|    0.012022|
|        5319|   -6.103418|   -8.050811|    0.824240|    0.012022|
|        5320|   -6.105529|   -8.056449|    0.824240|    0.012022|
|        5321|   -6.107840|   -8.062208|    0.824240|    0.012022|
|        5322|   -6.110362|   -8.068090|    0.824240|    0.012022|
|        5323|   -6.113104|   -8.074099|    0.824240|    0.012022|
|        5324|   -6.116064|   -8.080233|    0.824240|    0.012022|
|        5325|   -6.119235|   -8.086493|    0.824240|    0.012022|
|        5326|   -6.122605|   -8.092874|    0.824241|    0.012022|
|        5327|   -6.126153|   -8.099373|    0.824241|    0.012023|
|        5328|   -6.129857|   -8.105982|    0.824241|    0.012023|
|        5329|   -6.133685|   -8.112695|    0.824241|    0.012023|
|        5330|   -6.137605|   -8.119501|    0.824241|    0.012023|
|        5331|   -6.141579|   -8.126389|    0.824241|    0.012023|
|        5332|   -6.145568|   -8.133349|    0.824242|    0.012023|
|        5333|   -6.149530|   -8.140369|    0.824242|    0.012023|
|        5334|   -6.153425|   -8.147439|    0.824242|    0.012023|
|        5335|   -6.157212|   -8.154542|    0.824242|    0.012023|
|        5336|   -6.160853|   -8.161664|    0.824242|    0.012023|
|        5337|   -6.164317|   -8.168790|    0.824242|    0.012023|
|        5338|   -6.167575|   -8.175905|    0.824242|    0.012024|
|        5339|   -6.170605|   -8.183000|    0.824242|    0.012024|
|        5340|   -6.173393|   -8.190066|    0.824243|    0.012024|
|        5341|   -6.175933|   -8.197096|    0.824243|    0.012024|
|        5342|   -6.178225|   -8.204086|    0.824243|    0.012024|
|        5343|   -6.180279|   -8.211032|    0.824243|    0.012024|
|        5344|   -6.182111|   -8.217933|    0.824243|    0.012024|
|        5345|   -6.183747|   -8.224791|    0.824243|    0.012024|
|        5346|   -6.185215|   -8.231607|    0.824243|    0.012024|
|        5347|   -6.186551|   -8.238383|    0.824243|    0.012024|
|        5348|   -6.187794|   -8.245124|    0.824243|    0.012024|
|        5349|   -6.188985|   -8.251833|    0.824243|    0.012024|
|        5350|   -6.190165|   -8.258514|    0.824244|    0.012024|
|        5351|   -6.191379|   -8.265170|    0.824244|    0.012024|
|        5352|   -6.192668|   -8.271806|    0.824244|    0.012024|
|        5353|   -6.194071|   -8.278423|    0.824244|    0.012024|
|        5354|   -6.195627|   -8.285024|    0.824244|    0.012024|
|        5355|   -6.197369|   -8.291610|    0.824244|    0.012025|
|        5356|   -6.199328|   -8.298181|    0.824244|    0.012025|
|        5357|   -6.201530|   -8.304736|    0.824244|    0.012025|
|        5358|   -6.203998|   -8.311276|    0.824244|    0.012025|
|        5359|   -6.206748|   -8.317796|    0.824244|    0.012025|
|        5360|   -6.209794|   -8.324293|    0.824244|    0.012025|
|        5361|   -6.213144|   -8.330763|    0.824244|    0.012025|
|        5362|   -6.216799|   -8.337202|    0.824244|    0.012025|
|        5363|   -6.220759|   -8.343607|    0.824244|    0.012025|
|        5364|   -6.225017|   -8.349973|    0.824244|    0.012025|
|        5365|   -6.229560|   -8.356296|    0.824244|    0.012025|
|        5366|   -6.234372|   -8.362571|    0.824244|    0.012024|
|        5367|   -6.239432|   -8.368796|    0.824244|    0.012024|
|        5368|   -6.244713|   -8.374964|    0.824244|    0.012024|
|        5369|   -6.250185|   -8.381073|    0.824244|    0.012024|
|        5370|   -6.255813|   -8.387120|    0.824244|    0.012024|
|        5371|   -6.261558|   -8.393102|    0.824244|    0.012024|
|        5372|   -6.267379|   -8.399018|    0.824244|    0.012024|
|        5373|   -6.273230|   -8.404868|    0.824244|    0.012024|
|        5374|   -6.279065|   -8.410653|    0.824244|    0.012024|
|        5375|   -6.284836|   -8.416375|    0.824244|    0.012024|
|        5376|   -6.290495|   -8.422038|    0.824244|    0.012024|
|        5377|   -6.295994|   -8.427645|    0.824244|    0.012024|
|        5378|   -6.301287|   -8.433204|    0.824244|    0.012024|
|        5379|   -6.306334|   -8.438720|    0.824244|    0.012024|
|        5380|   -6.311096|   -8.444200|    0.824243|    0.012024|
|        5381|   -6.315540|   -8.449653|    0.824243|    0.012024|
|        5382|   -6.319641|   -8.455088|    0.824244|    0.012024|
|        5383|   -6.323378|   -8.460512|    0.824244|    0.012023|
|        5384|   -6.326739|   -8.465934|    0.824244|    0.012023|
|        5385|   -6.329719|   -8.471362|    0.824244|    0.012023|
|        5386|   -6.332320|   -8.476803|    0.824244|    0.012023|
|        5387|   -6.334551|   -8.482260|    0.824244|    0.012023|
|        5388|   -6.336424|   -8.487737|    0.824244|    0.012023|
|        5389|   -6.337959|   -8.493231|    0.824244|    0.012023|
|        5390|   -6.339179|   -8.498735|    0.824244|    0.012023|
|        5391|   -6.340109|   -8.504247|    0.824244|    0.012023|
|        5392|   -6.340776|   -8.509761|    0.824244|    0.012023|
|        5393|   -6.341208|   -8.515269|    0.824244|    0.012022|
|        5394|   -6.341432|   -8.520761|    0.824244|    0.012022|
|        5395|   -6.341475|   -8.526222|    0.824244|    0.012022|
|        5396|   -6.341361|   -8.531634|    0.824245|    0.012022|
|        5397|   -6.341113|   -8.536975|    0.824245|    0.012022|
|        5398|   -6.340752|   -8.542222|    0.824245|    0.012022|
|        5399|   -6.340296|   -8.547352|    0.824245|    0.012022|
|        5400|   -6.339759|   -8.552338|    0.824245|    0.012022|
|        5401|   -6.339154|   -8.557157|    0.824245|    0.012022|
|        5402|   -6.338493|   -8.561784|    0.824245|    0.012022|
|        5403|   -6.337785|   -8.566197|    0.824246|    0.012021|
|        5404|   -6.337035|   -8.570377|    0.824246|    0.012021|
|        5405|   -6.336249|   -8.574309|    0.824246|    0.012021|
|        5406|   -6.335432|   -8.577982|    0.824246|    0.012021|
|        5407|   -6.334586|   -8.581389|    0.824246|    0.012021|
|        5408|   -6.333715|   -8.584529|    0.824247|    0.012021|
|        5409|   -6.332820|   -8.587406|    0.824247|    0.012021|
|        5410|   -6.331904|   -8.590027|    0.824247|    0.012021|
|        5411|   -6.330970|   -8.592406|    0.824247|    0.012021|
|        5412|   -6.330019|   -8.594558|    0.824247|    0.012021|
|        5413|   -6.329055|   -8.596503|    0.824247|    0.012021|
|        5414|   -6.328080|   -8.598260|    0.824248|    0.012021|
|        5415|   -6.327099|   -8.599853|    0.824248|    0.012021|
|        5416|   -6.326116|   -8.601304|    0.824248|    0.012021|
|        5417|   -6.325137|   -8.602637|    0.824248|    0.012020|
|        5418|   -6.324166|   -8.603872|    0.824248|    0.012020|
|        5419|   -6.323210|   -8.605029|    0.824248|    0.012020|
|        5420|   -6.322277|   -8.606126|    0.824249|    0.012020|
|        5421|   -6.321374|   -8.607179|    0.824249|    0.012020|
|        5422|   -6.320511|   -8.608213|    0.824249|    0.012020|
|        5423|   -6.319696|   -8.609241|    0.824249|    0.012020|
|        5424|   -6.318940|   -8.610263|    0.824249|    0.012020|
|        5425|   -6.318254|   -8.611280|    0.824249|    0.012020|
|        5426|   -6.317649|   -8.612295|    0.824249|    0.012020|
|        5427|   -6.317137|   -8.613308|    0.824249|    0.012020|
|        5428|   -6.316733|   -8.614319|    0.824250|    0.012020|
|        5429|   -6.316448|   -8.615331|    0.824250|    0.012020|
|        5430|   -6.316297|   -8.616342|    0.824250|    0.012020|
|        5431|   -6.316293|   -8.617354|    0.824250|    0.012020|
|        5432|   -6.316451|   -8.618369|    0.824250|    0.012020|
|        5433|   -6.316785|   -8.619388|    0.824250|    0.012020|
|        5434|   -6.317309|   -8.620415|    0.824250|    0.012020|
|        5435|   -6.318035|   -8.621455|    0.824250|    0.012020|
|        5436|   -6.318978|   -8.622513|    0.824250|    0.012020|
|        5437|   -6.320149|   -8.623596|    0.824250|    0.012020|
|        5438|   -6.321558|   -8.624713|    0.824250|    0.012020|
|        5439|   -6.323216|   -8.625873|    0.824250|    0.012020|
|        5440|   -6.325131|   -8.627085|    0.824250|    0.012020|
|        5441|   -6.327308|   -8.628362|    0.824250|    0.012021|
|        5442|   -6.329753|   -8.629712|    0.824250|    0.012021|
|        5443|   -6.332466|   -8.631149|    0.824250|    0.012021|
|        5444|   -6.335448|   -8.632682|    0.824250|    0.012021|
|        5445|   -6.338696|   -8.634321|    0.824250|    0.012021|
|        5446|   -6.342204|   -8.636073|    0.824250|    0.012021|
|        5447|   -6.345962|   -8.637946|    0.824250|    0.012021|
|        5448|   -6.349959|   -8.639950|    0.824250|    0.012021|
|        5449|   -6.354178|   -8.642090|    0.824250|    0.012021|
|        5450|   -6.358601|   -8.644372|    0.824250|    0.012021|
|        5451|   -6.363204|   -8.646800|    0.824250|    0.012021|
|        5452|   -6.367961|   -8.649375|    0.824250|    0.012021|
|        5453|   -6.372843|   -8.652098|    0.824250|    0.012021|
|        5454|   -6.377815|   -8.654966|    0.824250|    0.012021|
|        5455|   -6.382841|   -8.657972|    0.824250|    0.012022|
|        5456|   -6.387882|   -8.661112|    0.824250|    0.012022|
|        5457|   -6.392896|   -8.664382|    0.824250|    0.012022|
|        5458|   -6.397840|   -8.667778|    0.824250|    0.012022|
|        5459|   -6.402667|   -8.671294|    0.824250|    0.012022|
|        5460|   -6.407333|   -8.674923|    0.824249|    0.012022|
|        5461|   -6.411795|   -8.678658|    0.824249|    0.012022|
|        5462|   -6.416008|   -8.682490|    0.824249|    0.012022|
|        5463|   -6.419933|   -8.686410|    0.824249|    0.012022|
|        5464|   -6.423535|   -8.690410|    0.824249|    0.012022|
|        5465|   -6.426780|   -8.694480|    0.824249|    0.012022|
|        5466|   -6.429646|   -8.698608|    0.824249|    0.012022|
|        5467|   -6.432111|   -8.702787|    0.824249|    0.012022|
|        5468|   -6.434166|   -8.707004|    0.824249|    0.012022|
|        5469|   -6.435805|   -8.711251|    0.824248|    0.012022|
|        5470|   -6.437032|   -8.715515|    0.824248|    0.012023|
|        5471|   -6.437857|   -8.719785|    0.824248|    0.012023|
|        5472|   -6.438299|   -8.724052|    0.824248|    0.012023|
|        5473|   -6.438380|   -8.728302|    0.824248|    0.012023|
|        5474|   -6.438130|   -8.732525|    0.824248|    0.012023|
|        5475|   -6.437582|   -8.736708|    0.824247|    0.012023|
|        5476|   -6.436772|   -8.740840|    0.824247|    0.012023|
|        5477|   -6.435741|   -8.744910|    0.824247|    0.012023|
|        5478|   -6.434527|   -8.748904|    0.824247|    0.012023|
|        5479|   -6.433173|   -8.752812|    0.824247|    0.012023|
|        5480|   -6.431718|   -8.756622|    0.824247|    0.012023|
|        5481|   -6.430201|   -8.760324|    0.824246|    0.012023|
|        5482|   -6.428661|   -8.763906|    0.824246|    0.012023|
|        5483|   -6.427133|   -8.767359|    0.824246|    0.012023|
|        5484|   -6.425651|   -8.770675|    0.824246|    0.012023|
|        5485|   -6.424245|   -8.773846|    0.824246|    0.012023|
|        5486|   -6.422942|   -8.776867|    0.824246|    0.012023|
|        5487|   -6.421768|   -8.779732|    0.824246|    0.012023|
|        5488|   -6.420746|   -8.782441|    0.824245|    0.012023|
|        5489|   -6.419894|   -8.784991|    0.824245|    0.012023|
|        5490|   -6.419229|   -8.787385|    0.824245|    0.012023|
|        5491|   -6.418765|   -8.789626|    0.824245|    0.012023|
|        5492|   -6.418514|   -8.791733|    0.824245|    0.012023|
|        5493|   -6.418486|   -8.793709|    0.824245|    0.012023|
|        5494|   -6.418687|   -8.795562|    0.824245|    0.012023|
|        5495|   -6.419122|   -8.797298|    0.824245|    0.012023|
|        5496|   -6.419796|   -8.798929|    0.824244|    0.012023|
|        5497|   -6.420710|   -8.800465|    0.824244|    0.012023|
|        5498|   -6.421864|   -8.801919|    0.824244|    0.012023|
|        5499|   -6.423257|   -8.803304|    0.824244|    0.012008|
+-----------------------------------------------------------------------+
|Fixed CL Mode (Finite Difference)       |Value                         |
+-----------------------------------------------------------------------+
|Delta CL / Delta AoA                    |0.243871                      |
|Delta CD / Delta CL                     |0.0175504                     |
|Delta CMz / Delta CL                    |0.00245159                    |
+-----------------------------------------------------------------------+
Writing Flow Meta-Data file: flow.meta

----------------------------- Solver Exit -------------------------------

Maximum number of iterations reached (ITER = 5500) before convergence.
+-----------------------------------------------------------------------+
|      Convergence Field     |     Value    |   Criterion  |  Converged |
+-----------------------------------------------------------------------+
|                    rms[Rho]|      -6.42326|         < -12|          No|
+-----------------------------------------------------------------------+
-------------------------------------------------------------------------

--------------------------- Finalizing Solver ---------------------------
Deleted CNumerics container.
Deleted CIntegration container.
Deleted CSolver container.
Deleted CIteration container.
Deleted CInterface container.
Deleted CGeometry container.
Deleted CFreeFormDefBox class.
Deleted CSurfaceMovement class.
Deleted CVolumetricMovement class.
Deleted CConfig container.
Deleted nInst container.
Deleted COutput class.
-------------------------------------------------------------------------

------------------------- Exit Success (SU2_CFD) ------------------------


-------------------------------------------------------------------------
|    ___ _   _ ___                                                      |
|   / __| | | |_  )   Release 8.0.0 "Harrier"                           |
|   \__ \ |_| |/ /                                                      |
|   |___/\___//___|   Suite (Solution Exporting Code)                   |
|                                                                       |
-------------------------------------------------------------------------
| SU2 Project Website: https://su2code.github.io                        |
|                                                                       |
| The SU2 Project is maintained by the SU2 Foundation                   |
| (http://su2foundation.org)                                            |
-------------------------------------------------------------------------
| Copyright 2012-2023, SU2 Contributors                                 |
|                                                                       |
| SU2 is free software; you can redistribute it and/or                  |
| modify it under the terms of the GNU Lesser General Public            |
| License as published by the Free Software Foundation; either          |
| version 2.1 of the License, or (at your option) any later version.    |
|                                                                       |
| SU2 is distributed in the hope that it will be useful,                |
| but WITHOUT ANY WARRANTY; without even the implied warranty of        |
| MERCHANTABILITY or FITNESS FOR A PARTICULAR PURPOSE. See the GNU      |
| Lesser General Public License for more details.                       |
|                                                                       |
| You should have received a copy of the GNU Lesser General Public      |
| License along with SU2. If not, see <http://www.gnu.org/licenses/>.   |
-------------------------------------------------------------------------

----------------- Physical Case Definition ( Zone 0 ) -------------------
Input mesh file name: mesh_RAE2822_turb_deform.su2

-------------------- Output Information ( Zone 0 ) ----------------------
The tabular file format is CSV (.csv).
Flow variables file name: flow.

------------- Config File Boundary Information ( Zone 0 ) ---------------
+-----------------------------------------------------------------------+
|                        Marker Type|                        Marker Name|
+-----------------------------------------------------------------------+
|                          Far-field|                           FARFIELD|
+-----------------------------------------------------------------------+
|                     Heat flux wall|                            AIRFOIL|
+-----------------------------------------------------------------------+
Two dimensional problem.
13937 grid points before partitioning.
22842 volume elements before partitioning.
2 surface markers.
192 boundary elements in index 0 (Marker = AIRFOIL).
40 boundary elements in index 1 (Marker = FARFIELD).
Executing the partitioning functions.
Building the graph adjacency structure.
Calling ParMETIS... graph partitioning complete (831 edge cuts).
Distributing ParMETIS coloring.
Rebalancing vertices.
Rebalancing volume element connectivity.
Rebalancing markers and surface elements.
14875 vertices including ghost points. 
23674 interior elements including halo cells. 
18780 triangles.
4894 quadrilaterals.
Establishing MPI communication patterns.
Identify vertices.
Storing a mapping from global to local point index.

------------------------- Solution Postprocessing -----------------------
Reading and storing the solution from restart_flow.
Volume output fields: COORDINATES, SOLUTION
  Info: Ignoring the following screen output fields:
  RMS_DENSITY, RMS_NU_TILDE, LIFT, DRAG
Screen output fields: INNER_ITER
  Info: Ignoring the following history output groups:
  RMS_RES, AERO_COEFF
History output group(s): ITER
Warning: No (valid) fields chosen for convergence monitoring. Convergence monitoring inactive.
Warning: No (valid) fields chosen for time convergence monitoring. Time convergence monitoring inactive.
|Paraview                           |flow.vtu                           |
|Paraview surface                   |surface_flow.vtu                   |
|CSV file                           |surface_flow.csv                   |

------------------------- Finalize Solver -------------------------
Deleted CGeometry container.
Deleted CSolver class.
Deleted CConfig container.
Deleted COutput class.

Completed in 0.019536 seconds on 6 cores.

------------------------- Exit Success (SU2_SOL) ------------------------

