
-------------------------------------------------------------------------
|    ___ _   _ ___                                                      |
|   / __| | | |_  )   Release 8.0.0 "Harrier"                           |
|   \__ \ |_| |/ /                                                      |
|   |___/\___//___|   Suite (Computational Fluid Dynamics Code)         |
|                                                                       |
-------------------------------------------------------------------------
| SU2 Project Website: https://su2code.github.io                        |
|                                                                       |
| The SU2 Project is maintained by the SU2 Foundation                   |
| (http://su2foundation.org)                                            |
-------------------------------------------------------------------------
| Copyright 2012-2023, SU2 Contributors                                 |
|                                                                       |
| SU2 is free software; you can redistribute it and/or                  |
| modify it under the terms of the GNU Lesser General Public            |
| License as published by the Free Software Foundation; either          |
| version 2.1 of the License, or (at your option) any later version.    |
|                                                                       |
| SU2 is distributed in the hope that it will be useful,                |
| but WITHOUT ANY WARRANTY; without even the implied warranty of        |
| MERCHANTABILITY or FITNESS FOR A PARTICULAR PURPOSE. See the GNU      |
| Lesser General Public License for more details.                       |
|                                                                       |
| You should have received a copy of the GNU Lesser General Public      |
| License along with SU2. If not, see <http://www.gnu.org/licenses/>.   |
-------------------------------------------------------------------------

Parsing config file for zone 0

----------------- Physical Case Definition ( Zone 0 ) -------------------
Compressible RANS equations.
Turbulence model: Spalart-Allmaras-noft2
Hybrid RANS/LES: No Hybrid RANS/LES
Mach number: 0.734.
Angle of attack (AoA): 2.31 deg, and angle of sideslip (AoS): 0 deg.
Reynolds number: 6.5e+06. Reference length 1.
Fixed CL mode, target value: 0.824.
Reading and writing binary SU2 native restart files.
Read flow solution from: solution_flow.dat.
Dimensional simulation.
The reference area is 1 m^2.
The semi-span will be computed using the max y(3D) value.
The reference length is 1 m.
Reference origin for moment evaluation is (0.25, 0, 0).
Surface(s) where the force coefficients are evaluated: AIRFOIL.

Surface(s) plotted in the output file: AIRFOIL.
Surface(s) affected by the design variables: AIRFOIL.
Input mesh file name: mesh_RAE2822_turb_deform.su2

--------------- Space Numerical Integration ( Zone 0 ) ------------------
Jameson-Schmidt-Turkel scheme (2nd order in space) for the flow inviscid terms.
JST viscous coefficients (2nd & 4th): 0.5, 0.02.
The method includes a grid stretching correction (p = 0.3).
Scalar upwind solver for the turbulence model.
First order integration in space.
Average of gradients with correction (viscous flow terms).
Average of gradients with correction (viscous turbulence terms).
Gradient for viscous and source terms: inverse-distance weighted Least-Squares.

--------------- Time Numerical Integration  ( Zone 0 ) ------------------
Local time stepping (steady state simulation).
Euler implicit method for the flow equations.
FGMRES is used for solving the linear system.
Using a ILU(0) preconditioning.
Convergence criteria of the linear solver: 1e-06.
Max number of linear iterations: 10.
No CFL adaptation.
Courant-Friedrichs-Lewy number:       10
Euler implicit time integration for the turbulence model.

------------------ Convergence Criteria  ( Zone 0 ) ---------------------
Maximum number of solver subiterations: 5500.
Begin convergence monitoring at iteration 10.
Residual minimum value: 1e-12.
Cauchy series min. value: 1e-06.
Number of Cauchy elements: 100.
Begin windowed time average at iteration 0.

-------------------- Output Information ( Zone 0 ) ----------------------
File writing frequency: 
+------------------------------------+
|                     File| Frequency|
+------------------------------------+
|                  RESTART|     10000|
|                 PARAVIEW|     10000|
|         SURFACE_PARAVIEW|     10000|
|              SURFACE_CSV|     10000|
+------------------------------------+
Writing the convergence history file every 1 inner iterations.
Writing the screen convergence history every 1 inner iterations.
The tabular file format is CSV (.csv).
Convergence history file name: history_direct.
Forces breakdown file name: forces_breakdown.dat.
Surface file name: surface_flow.
Volume file name: flow.
Restart file name: restart_flow.dat.

------------- Config File Boundary Information ( Zone 0 ) ---------------
+-----------------------------------------------------------------------+
|                        Marker Type|                        Marker Name|
+-----------------------------------------------------------------------+
|                          Far-field|                           FARFIELD|
+-----------------------------------------------------------------------+
|                     Heat flux wall|                            AIRFOIL|
+-----------------------------------------------------------------------+

-------------------- Output Preprocessing ( Zone 0 ) --------------------

WARNING: SURFACE_PRESSURE_DROP can only be computed for at least 2 surfaces (outlet, inlet, ...)

Screen output fields: INNER_ITER, RMS_DENSITY, RMS_NU_TILDE, LIFT, DRAG
History output group(s): ITER, RMS_RES, AERO_COEFF
Convergence field(s): RMS_DENSITY
Warning: No (valid) fields chosen for time convergence monitoring. Time convergence monitoring inactive.
Volume output fields: COORDINATES, SOLUTION, PRIMITIVE

------------------- Geometry Preprocessing ( Zone 0 ) -------------------
Two dimensional problem.
13937 grid points before partitioning.
22842 volume elements before partitioning.
2 surface markers.
192 boundary elements in index 0 (Marker = AIRFOIL).
40 boundary elements in index 1 (Marker = FARFIELD).
Executing the partitioning functions.
Building the graph adjacency structure.
Calling ParMETIS... graph partitioning complete (831 edge cuts).
Distributing ParMETIS coloring.
Rebalancing vertices.
Rebalancing volume element connectivity.
Rebalancing markers and surface elements.
14875 vertices including ghost points. 
23674 interior elements including halo cells. 
18780 triangles.
4894 quadrilaterals.
Establishing MPI communication patterns.
Setting point connectivity.
Renumbering points (Reverse Cuthill McKee Ordering).
Recomputing point connectivity.
Setting element connectivity.
Checking the numerical grid orientation.
All volume elements are correctly orientend.
All surface elements are correctly orientend.
Identifying edges and vertices.
Setting the control volume structure.
Area of the computational grid: 32209.9.
Searching for the closest normal neighbors to the surfaces.
Storing a mapping from global to local point index.
Compute the surface curvature.
Max K: 172.089. Mean K: 7.77558. Standard deviation K: 23.6789.
Checking for periodicity.
Computing mesh quality statistics for the dual control volumes.
+--------------------------------------------------------------+
|           Mesh Quality Metric|        Minimum|        Maximum|
+--------------------------------------------------------------+
|    Orthogonality Angle (deg.)|        75.1615|        89.9991|
|     CV Face Area Aspect Ratio|        1.00368|        3358.53|
|           CV Sub-Volume Ratio|        1.00047|         1214.9|
+--------------------------------------------------------------+
Finding max control volume width.
Communicating number of neighbors.
Wetted area = 2.02199 m.
Area projection in the x-plane = 0.124799 m, y-plane = 0.995873 m.
Max. coordinate in the x-direction = 1 m, y-direction = 0.0621933 m.
Min. coordinate in the x-direction = 0 m, y-direction = -0.059888 m.
Computing wall distances.

-------------------- Solver Preprocessing ( Zone 0 ) --------------------
WARNING: AoA in the solution file (2.79035 deg.) +
         AoA offset in mesh file (0 deg.) = 2.79035 deg.
WARNING: SU2 will use the dCD/dCL provided in the direct solution file: 0.0173076.
WARNING: SU2 will use the dCMz/dCL provided in the direct solution file: -0.000905189.
Viscous flow: Computing pressure using the ideal gas law
based on the free-stream temperature and a density computed
from the Reynolds number.
Force coefficients computed using free-stream values.

-- Models:
+------------------------------------------------------------------------------+
|          Viscosity Model|        Conductivity Model|              Fluid Model|
+------------------------------------------------------------------------------+
|               SUTHERLAND|          CONSTANT_PRANDTL|             STANDARD_AIR|
+------------------------------------------------------------------------------+
-- Fluid properties:
+------------------------------------------------------------------------------+
|                  Name|    Dim. value|    Ref. value|      Unit|Non-dim. value|
+------------------------------------------------------------------------------+
|        Ref. Viscosity|     1.716e-05|             1|   N.s/m^2|     1.716e-05|
|      Sutherland Temp.|        273.15|             1|         K|        273.15|
|     Sutherland Const.|         110.4|             1|         K|         110.4|
+------------------------------------------------------------------------------+
|        Prandtl (Lam.)|             -|             -|         -|          0.71|
|       Prandtl (Turb.)|             -|             -|         -|           0.9|
+------------------------------------------------------------------------------+
|          Gas Constant|       287.058|             1|  N.m/kg.K|       287.058|
|      Spec. Heat Ratio|             -|             -|         -|           1.4|
+------------------------------------------------------------------------------+
-- Initial and free-stream conditions:
+------------------------------------------------------------------------------+
|                  Name|    Dim. value|    Ref. value|      Unit|Non-dim. value|
+------------------------------------------------------------------------------+
|       Static Pressure|         38515|             1|        Pa|         38515|
|               Density|      0.465631|             1|    kg/m^3|      0.465631|
|           Temperature|        288.15|             1|         K|        288.15|
|          Total Energy|        237984|             1|   m^2/s^2|        237984|
|            Velocity-X|       249.482|             1|       m/s|       249.482|
|            Velocity-Y|       12.1596|             1|       m/s|       12.1596|
|    Velocity Magnitude|       249.778|             1|       m/s|       249.778|
+------------------------------------------------------------------------------+
|             Viscosity|    1.7893e-05|             1|   N.s/m^2|    1.7893e-05|
|          Conductivity|             -|             1|   W/m^2.K|             -|
|     Turb. Kin. Energy|       233.959|             1|   m^2/s^2|       233.959|
|     Spec. Dissipation|        608834|             1|       1/s|        608834|
+------------------------------------------------------------------------------+
|           Mach Number|             -|             -|         -|         0.734|
|       Reynolds Number|             -|             -|         -|       6.5e+06|
+------------------------------------------------------------------------------+
Initialize Jacobian structure (Navier-Stokes). MG level: 0.
Initialize Jacobian structure (SA model).

------------------- Numerics Preprocessing ( Zone 0 ) -------------------

----------------- Integration Preprocessing ( Zone 0 ) ------------------

------------------- Iteration Preprocessing ( Zone 0 ) ------------------
Euler/Navier-Stokes/RANS fluid iteration.

------------------------------ Begin Solver -----------------------------

Simulation Run using the Single-zone Driver
WARNING: SU2 was not compiled for an AVX-capable architecture. Performance could be better,
         see https://su2code.github.io/docs_v7/Build-SU2-Linux-MacOS/#compiler-optimizations
+----------------------------------------------------------------+
|  Inner_Iter|    rms[Rho]|     rms[nu]|          CL|          CD|
+----------------------------------------------------------------+
|           0|   -5.126934|   -6.317596|    0.823996|    0.011953|
|           1|   -5.184964|   -6.413978|    0.823984|    0.011945|
|           2|   -5.244866|   -6.522583|    0.823970|    0.011943|
|           3|   -5.288019|   -6.636398|    0.823958|    0.011944|
|           4|   -5.316904|   -6.749031|    0.823949|    0.011945|
|           5|   -5.335845|   -6.851347|    0.823943|    0.011945|
|           6|   -5.347037|   -6.930136|    0.823940|    0.011945|
|           7|   -5.352290|   -6.973794|    0.823939|    0.011943|
|           8|   -5.353207|   -6.983529|    0.823940|    0.011941|
|           9|   -5.350430|   -6.973459|    0.823942|    0.011939|
|          10|   -5.343785|   -6.957649|    0.823946|    0.011938|
|          11|   -5.333207|   -6.943543|    0.823952|    0.011938|
|          12|   -5.319393|   -6.933346|    0.823959|    0.011938|
|          13|   -5.303720|   -6.926920|    0.823967|    0.011939|
|          14|   -5.287794|   -6.923468|    0.823976|    0.011941|
|          15|   -5.273056|   -6.921863|    0.823984|    0.011944|
|          16|   -5.260565|   -6.920361|    0.823992|    0.011947|
|          17|   -5.250897|   -6.916465|    0.823999|    0.011950|
|          18|   -5.244114|   -6.907713|    0.824004|    0.011953|
|          19|   -5.239810|   -6.893099|    0.824008|    0.011957|
|          20|   -5.237241|   -6.873765|    0.824010|    0.011960|
|          21|   -5.235515|   -6.852461|    0.824010|    0.011963|
|          22|   -5.233824|   -6.832270|    0.824010|    0.011965|
|          23|   -5.231606|   -6.815597|    0.824008|    0.011968|
|          24|   -5.228612|   -6.803842|    0.824005|    0.011970|
|          25|   -5.224851|   -6.797495|    0.824002|    0.011971|
|          26|   -5.220485|   -6.796368|    0.823998|    0.011973|
|          27|   -5.215719|   -6.799812|    0.823994|    0.011974|
|          28|   -5.210743|   -6.806882|    0.823989|    0.011975|
|          29|   -5.205718|   -6.816453|    0.823985|    0.011976|
|          30|   -5.200778|   -6.827320|    0.823981|    0.011976|
|          31|   -5.196041|   -6.838304|    0.823977|    0.011977|
|          32|   -5.191611|   -6.848347|    0.823974|    0.011978|
|          33|   -5.187571|   -6.856614|    0.823970|    0.011978|
|          34|   -5.183973|   -6.862561|    0.823967|    0.011979|
|          35|   -5.180840|   -6.865955|    0.823964|    0.011979|
|          36|   -5.178159|   -6.866839|    0.823961|    0.011979|
|          37|   -5.175896|   -6.865456|    0.823958|    0.011980|
|          38|   -5.173996|   -6.862169|    0.823955|    0.011980|
|          39|   -5.172398|   -6.857395|    0.823952|    0.011980|
|          40|   -5.171038|   -6.851563|    0.823949|    0.011981|
|          41|   -5.169861|   -6.845105|    0.823946|    0.011981|
|          42|   -5.168820|   -6.838447|    0.823942|    0.011981|
|          43|   -5.167889|   -6.832006|    0.823939|    0.011981|
|          44|   -5.167045|   -6.826184|    0.823936|    0.011981|
|          45|   -5.166277|   -6.821349|    0.823932|    0.011982|
|          46|   -5.165583|   -6.817818|    0.823929|    0.011982|
|          47|   -5.164963|   -6.815835|    0.823925|    0.011982|
|          48|   -5.164420|   -6.815553|    0.823922|    0.011982|
|          49|   -5.163958|   -6.817025|    0.823919|    0.011982|
|          50|   -5.163580|   -6.820197|    0.823916|    0.011982|
|          51|   -5.163292|   -6.824913|    0.823913|    0.011982|
|          52|   -5.163103|   -6.830921|    0.823910|    0.011982|
|          53|   -5.163028|   -6.837894|    0.823908|    0.011983|
|          54|   -5.163082|   -6.845449|    0.823906|    0.011983|
|          55|   -5.163289|   -6.853186|    0.823904|    0.011983|
|          56|   -5.163674|   -6.860718|    0.823903|    0.011983|
|          57|   -5.164264|   -6.867705|    0.823902|    0.011983|
|          58|   -5.165079|   -6.873890|    0.823900|    0.011983|
|          59|   -5.166136|   -6.879109|    0.823899|    0.011983|
|          60|   -5.167439|   -6.883308|    0.823898|    0.011983|
|          61|   -5.168982|   -6.886529|    0.823898|    0.011983|
|          62|   -5.170750|   -6.888897|    0.823897|    0.011983|
|          63|   -5.172718|   -6.890592|    0.823896|    0.011983|
|          64|   -5.174854|   -6.891826|    0.823895|    0.011983|
|          65|   -5.177129|   -6.892809|    0.823894|    0.011983|
|          66|   -5.179520|   -6.893731|    0.823894|    0.011983|
|          67|   -5.182013|   -6.894746|    0.823893|    0.011983|
|          68|   -5.184603|   -6.895955|    0.823892|    0.011983|
|          69|   -5.187296|   -6.897412|    0.823891|    0.011983|
|          70|   -5.190103|   -6.899117|    0.823891|    0.011983|
|          71|   -5.193035|   -6.901036|    0.823890|    0.011983|
|          72|   -5.196099|   -6.903109|    0.823889|    0.011982|
|          73|   -5.199292|   -6.905267|    0.823889|    0.011982|
|          74|   -5.202603|   -6.907453|    0.823888|    0.011982|
|          75|   -5.206010|   -6.909629|    0.823888|    0.011983|
|          76|   -5.209486|   -6.911786|    0.823888|    0.011983|
|          77|   -5.213003|   -6.913942|    0.823887|    0.011983|
|          78|   -5.216538|   -6.916142|    0.823887|    0.011983|
|          79|   -5.220075|   -6.918448|    0.823886|    0.011983|
|          80|   -5.223611|   -6.920927|    0.823886|    0.011983|
|          81|   -5.227154|   -6.923646|    0.823885|    0.011983|
|          82|   -5.230723|   -6.926659|    0.823885|    0.011984|
|          83|   -5.234341|   -6.930009|    0.823884|    0.011984|
|          84|   -5.238033|   -6.933721|    0.823884|    0.011984|
|          85|   -5.241818|   -6.937807|    0.823883|    0.011984|
|          86|   -5.245704|   -6.942264|    0.823882|    0.011984|
|          87|   -5.249688|   -6.947083|    0.823882|    0.011984|
|          88|   -5.253752|   -6.952247|    0.823881|    0.011985|
|          89|   -5.257863|   -6.957735|    0.823880|    0.011985|
|          90|   -5.261977|   -6.963527|    0.823879|    0.011985|
|          91|   -5.266042|   -6.969601|    0.823879|    0.011985|
|          92|   -5.269999|   -6.975937|    0.823878|    0.011985|
|          93|   -5.273793|   -6.982515|    0.823877|    0.011985|
|          94|   -5.277368|   -6.989316|    0.823877|    0.011986|
|          95|   -5.280679|   -6.996323|    0.823877|    0.011986|
|          96|   -5.283689|   -7.003516|    0.823876|    0.011986|
|          97|   -5.286371|   -7.010875|    0.823876|    0.011986|
|          98|   -5.288713|   -7.018378|    0.823876|    0.011987|
|          99|   -5.290713|   -7.025997|    0.823877|    0.011987|
|         100|   -5.292383|   -7.033703|    0.823877|    0.011987|
|         101|   -5.293744|   -7.041457|    0.823877|    0.011997|
+-----------------------------------------------------------------------+
|Fixed CL Mode                           |Value                         |
+-----------------------------------------------------------------------+
|Current CL                              |0.823877                      |
|Target CL                               |0.824                         |
|Previous AOA                            |2.79035                       |
|Changed AoA by                          |0.000615342                   |
+-----------------------------------------------------------------------+
+----------------------------------------------------------------+
|  Inner_Iter|    rms[Rho]|     rms[nu]|          CL|          CD|
+----------------------------------------------------------------+
|         102|   -3.404242|   -7.024459|    0.823878|    0.011997|
|         103|   -3.789058|   -7.044156|    0.823878|    0.011998|
|         104|   -4.034794|   -7.055234|    0.823879|    0.011998|
|         105|   -4.115064|   -7.064509|    0.823880|    0.011999|
|         106|   -4.169435|   -7.073045|    0.823881|    0.011999|
|         107|   -4.239568|   -7.081057|    0.823881|    0.012000|
|         108|   -4.325989|   -7.088573|    0.823882|    0.012001|
|         109|   -4.415576|   -7.095596|    0.823883|    0.012001|
|         110|   -4.491323|   -7.102122|    0.823883|    0.012002|
|         111|   -4.544960|   -7.108141|    0.823884|    0.012003|
|         112|   -4.578880|   -7.113655|    0.823884|    0.012004|
|         113|   -4.597727|   -7.118704|    0.823884|    0.012004|
|         114|   -4.605792|   -7.123343|    0.823885|    0.012005|
|         115|   -4.608852|   -7.127625|    0.823885|    0.012006|
|         116|   -4.613129|   -7.131577|    0.823884|    0.012006|
|         117|   -4.622689|   -7.135213|    0.823884|    0.012007|
|         118|   -4.638369|   -7.138548|    0.823884|    0.012008|
|         119|   -4.658323|   -7.141614|    0.823883|    0.012009|
|         120|   -4.679452|   -7.144448|    0.823883|    0.012009|
|         121|   -4.699164|   -7.147093|    0.823882|    0.012010|
|         122|   -4.716614|   -7.149583|    0.823881|    0.012010|
|         123|   -4.732614|   -7.151954|    0.823880|    0.012011|
|         124|   -4.748524|   -7.154242|    0.823879|    0.012012|
|         125|   -4.765188|   -7.156473|    0.823878|    0.012012|
|         126|   -4.782578|   -7.158677|    0.823877|    0.012013|
|         127|   -4.800008|   -7.160884|    0.823876|    0.012013|
|         128|   -4.816546|   -7.163122|    0.823876|    0.012014|
|         129|   -4.831326|   -7.165419|    0.823875|    0.012014|
|         130|   -4.843736|   -7.167797|    0.823874|    0.012015|
|         131|   -4.853530|   -7.170279|    0.823873|    0.012015|
|         132|   -4.860910|   -7.172888|    0.823873|    0.012016|
|         133|   -4.866524|   -7.175643|    0.823872|    0.012016|
|         134|   -4.871314|   -7.178564|    0.823872|    0.012017|
|         135|   -4.876278|   -7.181662|    0.823871|    0.012017|
|         136|   -4.882234|   -7.184948|    0.823871|    0.012018|
|         137|   -4.889674|   -7.188430|    0.823871|    0.012019|
|         138|   -4.898707|   -7.192112|    0.823871|    0.012019|
|         139|   -4.909071|   -7.195996|    0.823871|    0.012020|
|         140|   -4.920184|   -7.200079|    0.823872|    0.012020|
|         141|   -4.931247|   -7.204356|    0.823872|    0.012021|
|         142|   -4.941411|   -7.208817|    0.823873|    0.012022|
|         143|   -4.949993|   -7.213451|    0.823874|    0.012022|
|         144|   -4.956677|   -7.218244|    0.823874|    0.012023|
|         145|   -4.961606|   -7.223180|    0.823875|    0.012024|
|         146|   -4.965320|   -7.228240|    0.823876|    0.012024|
|         147|   -4.968572|   -7.233406|    0.823878|    0.012025|
|         148|   -4.972102|   -7.238658|    0.823879|    0.012026|
|         149|   -4.976476|   -7.243980|    0.823880|    0.012026|
|         150|   -4.981995|   -7.249351|    0.823882|    0.012027|
|         151|   -4.988689|   -7.254761|    0.823884|    0.012028|
|         152|   -4.996362|   -7.260191|    0.823886|    0.012028|
|         153|   -5.004670|   -7.265621|    0.823888|    0.012029|
|         154|   -5.013216|   -7.271035|    0.823890|    0.012030|
|         155|   -5.021635|   -7.276422|    0.823892|    0.012030|
|         156|   -5.029665|   -7.281766|    0.823895|    0.012031|
|         157|   -5.037182|   -7.287056|    0.823898|    0.012031|
|         158|   -5.044199|   -7.292279|    0.823901|    0.012032|
|         159|   -5.050832|   -7.297419|    0.823904|    0.012032|
|         160|   -5.057248|   -7.302459|    0.823907|    0.012033|
|         161|   -5.063619|   -7.307383|    0.823910|    0.012033|
|         162|   -5.070084|   -7.312179|    0.823914|    0.012034|
|         163|   -5.076732|   -7.316832|    0.823918|    0.012034|
|         164|   -5.083600|   -7.321328|    0.823922|    0.012035|
|         165|   -5.090687|   -7.325651|    0.823926|    0.012035|
|         166|   -5.097962|   -7.329787|    0.823930|    0.012035|
|         167|   -5.105389|   -7.333723|    0.823934|    0.012036|
|         168|   -5.112930|   -7.337444|    0.823938|    0.012036|
|         169|   -5.120557|   -7.340931|    0.823942|    0.012036|
|         170|   -5.128252|   -7.344164|    0.823947|    0.012037|
|         171|   -5.136002|   -7.347123|    0.823951|    0.012037|
|         172|   -5.143800|   -7.349781|    0.823955|    0.012037|
|         173|   -5.151636|   -7.352111|    0.823959|    0.012037|
|         174|   -5.159492|   -7.354086|    0.823963|    0.012037|
|         175|   -5.167347|   -7.355679|    0.823966|    0.012038|
|         176|   -5.175171|   -7.356858|    0.823970|    0.012038|
|         177|   -5.182926|   -7.357600|    0.823973|    0.012038|
|         178|   -5.190573|   -7.357883|    0.823976|    0.012038|
|         179|   -5.198065|   -7.357697|    0.823979|    0.012038|
|         180|   -5.205355|   -7.357042|    0.823981|    0.012038|
|         181|   -5.212393|   -7.355928|    0.823984|    0.012038|
|         182|   -5.219130|   -7.354377|    0.823985|    0.012038|
|         183|   -5.225518|   -7.352422|    0.823987|    0.012038|
|         184|   -5.231509|   -7.350109|    0.823988|    0.012038|
|         185|   -5.237062|   -7.347492|    0.823989|    0.012038|
|         186|   -5.242140|   -7.344633|    0.823990|    0.012038|
|         187|   -5.246716|   -7.341601|    0.823990|    0.012037|
|         188|   -5.250777|   -7.338468|    0.823990|    0.012037|
|         189|   -5.254316|   -7.335304|    0.823989|    0.012037|
|         190|   -5.257342|   -7.332178|    0.823989|    0.012037|
|         191|   -5.259878|   -7.329154|    0.823988|    0.012037|
|         192|   -5.261958|   -7.326289|    0.823987|    0.012036|
|         193|   -5.263628|   -7.323635|    0.823985|    0.012036|
|         194|   -5.264943|   -7.321233|    0.823984|    0.012036|
|         195|   -5.265965|   -7.319119|    0.823982|    0.012035|
|         196|   -5.266763|   -7.317317|    0.823980|    0.012035|
|         197|   -5.267410|   -7.315841|    0.823978|    0.012035|
|         198|   -5.267980|   -7.314700|    0.823975|    0.012034|
|         199|   -5.268545|   -7.313884|    0.823973|    0.012034|
|         200|   -5.269180|   -7.313380|    0.823971|    0.012033|
|         201|   -5.269956|   -7.313172|    0.823968|    0.012035|
+-----------------------------------------------------------------------+
|Fixed CL Mode                           |Value                         |
+-----------------------------------------------------------------------+
|Current CL                              |0.823968                      |
|Target CL                               |0.824                         |
|Previous AOA                            |2.79096                       |
|Changed AoA by                          |0.000146749                   |
+-----------------------------------------------------------------------+
+----------------------------------------------------------------+
|  Inner_Iter|    rms[Rho]|     rms[nu]|          CL|          CD|
+----------------------------------------------------------------+
|         202|   -4.025907|   -7.307959|    0.823966|    0.012035|
|         203|   -4.403672|   -7.310788|    0.823963|    0.012034|
|         204|   -4.631547|   -7.312035|    0.823961|    0.012034|
|         205|   -4.703264|   -7.313136|    0.823958|    0.012034|
|         206|   -4.753756|   -7.314270|    0.823956|    0.012033|
|         207|   -4.817731|   -7.315439|    0.823953|    0.012033|
|         208|   -4.893517|   -7.316602|    0.823951|    0.012032|
|         209|   -4.968750|   -7.317715|    0.823949|    0.012032|
|         210|   -5.030690|   -7.318747|    0.823947|    0.012032|
|         211|   -5.075394|   -7.319672|    0.823945|    0.012031|
|         212|   -5.105997|   -7.320470|    0.823943|    0.012031|
|         213|   -5.125851|   -7.321132|    0.823941|    0.012031|
|         214|   -5.137443|   -7.321655|    0.823939|    0.012030|
|         215|   -5.144312|   -7.322046|    0.823938|    0.012030|
|         216|   -5.150755|   -7.322307|    0.823937|    0.012030|
|         217|   -5.159954|   -7.322440|    0.823935|    0.012029|
|         218|   -5.172914|   -7.322453|    0.823934|    0.012029|
|         219|   -5.188733|   -7.322362|    0.823934|    0.012029|
|         220|   -5.205667|   -7.322175|    0.823933|    0.012029|
|         221|   -5.222309|   -7.321896|    0.823933|    0.012028|
|         222|   -5.238254|   -7.321564|    0.823932|    0.012028|
|         223|   -5.253934|   -7.321203|    0.823932|    0.012028|
|         224|   -5.269929|   -7.320844|    0.823932|    0.012028|
|         225|   -5.286391|   -7.320515|    0.823932|    0.012028|
|         226|   -5.302897|   -7.320234|    0.823933|    0.012028|
|         227|   -5.318662|   -7.320032|    0.823933|    0.012028|
|         228|   -5.332875|   -7.319930|    0.823934|    0.012028|
|         229|   -5.344953|   -7.319944|    0.823935|    0.012028|
|         230|   -5.354653|   -7.320093|    0.823936|    0.012028|
|         231|   -5.362080|   -7.320395|    0.823937|    0.012028|
|         232|   -5.367649|   -7.320856|    0.823939|    0.012028|
|         233|   -5.371987|   -7.321479|    0.823940|    0.012028|
|         234|   -5.375804|   -7.322263|    0.823942|    0.012028|
|         235|   -5.379733|   -7.323205|    0.823944|    0.012028|
|         236|   -5.384225|   -7.324301|    0.823946|    0.012028|
|         237|   -5.389477|   -7.325551|    0.823948|    0.012028|
|         238|   -5.395440|   -7.326955|    0.823950|    0.012028|
|         239|   -5.401856|   -7.328503|    0.823952|    0.012028|
|         240|   -5.408330|   -7.330188|    0.823954|    0.012028|
|         241|   -5.414420|   -7.332007|    0.823957|    0.012029|
|         242|   -5.419743|   -7.333957|    0.823959|    0.012029|
|         243|   -5.424073|   -7.336039|    0.823962|    0.012029|
|         244|   -5.427405|   -7.338236|    0.823964|    0.012029|
|         245|   -5.429958|   -7.340545|    0.823967|    0.012029|
|         246|   -5.432112|   -7.342980|    0.823969|    0.012030|
|         247|   -5.434308|   -7.345540|    0.823972|    0.012030|
|         248|   -5.436945|   -7.348229|    0.823975|    0.012030|
|         249|   -5.440308|   -7.351041|    0.823977|    0.012030|
|         250|   -5.444534|   -7.353973|    0.823980|    0.012030|
|         251|   -5.449620|   -7.357027|    0.823983|    0.012031|
|         252|   -5.455447|   -7.360203|    0.823985|    0.012031|
|         253|   -5.461829|   -7.363502|    0.823988|    0.012031|
|         254|   -5.468560|   -7.366920|    0.823990|    0.012031|
|         255|   -5.475459|   -7.370453|    0.823993|    0.012032|
|         256|   -5.482397|   -7.374100|    0.823995|    0.012032|
|         257|   -5.489309|   -7.377860|    0.823998|    0.012032|
|         258|   -5.496190|   -7.381732|    0.824000|    0.012032|
|         259|   -5.503075|   -7.385716|    0.824003|    0.012032|
|         260|   -5.510022|   -7.389809|    0.824005|    0.012032|
|         261|   -5.517086|   -7.394009|    0.824007|    0.012033|
|         262|   -5.524306|   -7.398314|    0.824009|    0.012033|
|         263|   -5.531699|   -7.402723|    0.824011|    0.012033|
|         264|   -5.539255|   -7.407235|    0.824013|    0.012033|
|         265|   -5.546946|   -7.411850|    0.824015|    0.012033|
|         266|   -5.554728|   -7.416569|    0.824017|    0.012033|
|         267|   -5.562555|   -7.421394|    0.824019|    0.012033|
|         268|   -5.570378|   -7.426326|    0.824021|    0.012033|
|         269|   -5.578149|   -7.431377|    0.824022|    0.012033|
|         270|   -5.585824|   -7.436554|    0.824024|    0.012034|
|         271|   -5.593357|   -7.441863|    0.824026|    0.012034|
|         272|   -5.600703|   -7.447310|    0.824027|    0.012034|
|         273|   -5.607812|   -7.452904|    0.824029|    0.012034|
|         274|   -5.614634|   -7.458654|    0.824030|    0.012034|
|         275|   -5.621114|   -7.464571|    0.824031|    0.012034|
|         276|   -5.627198|   -7.470666|    0.824033|    0.012034|
|         277|   -5.632835|   -7.476949|    0.824034|    0.012034|
|         278|   -5.637978|   -7.483433|    0.824035|    0.012034|
|         279|   -5.642590|   -7.490125|    0.824036|    0.012033|
|         280|   -5.646649|   -7.497033|    0.824037|    0.012033|
|         281|   -5.650141|   -7.504163|    0.824038|    0.012033|
|         282|   -5.653064|   -7.511518|    0.824039|    0.012033|
|         283|   -5.655433|   -7.519098|    0.824040|    0.012033|
|         284|   -5.657273|   -7.526900|    0.824041|    0.012033|
|         285|   -5.658621|   -7.534921|    0.824041|    0.012033|
|         286|   -5.659521|   -7.543154|    0.824042|    0.012033|
|         287|   -5.660025|   -7.551585|    0.824043|    0.012033|
|         288|   -5.660187|   -7.560201|    0.824043|    0.012033|
|         289|   -5.660064|   -7.568985|    0.824044|    0.012033|
|         290|   -5.659711|   -7.577919|    0.824044|    0.012033|
|         291|   -5.659183|   -7.586983|    0.824044|    0.012032|
|         292|   -5.658529|   -7.596156|    0.824044|    0.012032|
|         293|   -5.657797|   -7.605417|    0.824045|    0.012032|
|         294|   -5.657026|   -7.614744|    0.824045|    0.012032|
|         295|   -5.656253|   -7.624118|    0.824045|    0.012032|
|         296|   -5.655509|   -7.633519|    0.824045|    0.012032|
|         297|   -5.654822|   -7.642929|    0.824045|    0.012032|
|         298|   -5.654211|   -7.652335|    0.824044|    0.012032|
|         299|   -5.653697|   -7.661724|    0.824044|    0.012031|
|         300|   -5.653292|   -7.671092|    0.824044|    0.012031|
|         301|   -5.653008|   -7.680432|    0.824044|    0.012028|
+-----------------------------------------------------------------------+
|Fixed CL Mode                           |Value                         |
+-----------------------------------------------------------------------+
|Current CL                              |0.824044                      |
|Target CL                               |0.824                         |
|Previous AOA                            |2.79111                       |
|Changed AoA by                          |-0.000219905                  |
+-----------------------------------------------------------------------+
+----------------------------------------------------------------+
|  Inner_Iter|    rms[Rho]|     rms[nu]|          CL|          CD|
+----------------------------------------------------------------+
|         302|   -3.851105|   -7.633822|    0.824043|    0.012028|
|         303|   -4.236190|   -7.669058|    0.824043|    0.012028|
|         304|   -4.482797|   -7.686045|    0.824043|    0.012028|
|         305|   -4.563393|   -7.699242|    0.824042|    0.012027|
|         306|   -4.617653|   -7.711058|    0.824042|    0.012027|
|         307|   -4.687602|   -7.722034|    0.824041|    0.012027|
|         308|   -4.773786|   -7.732303|    0.824041|    0.012027|
|         309|   -4.862923|   -7.741920|    0.824040|    0.012027|
|         310|   -4.937815|   -7.750898|    0.824040|    0.012026|
|         311|   -4.990195|   -7.759199|    0.824039|    0.012026|
|         312|   -5.022700|   -7.766798|    0.824039|    0.012026|
|         313|   -5.040283|   -7.773747|    0.824039|    0.012026|
|         314|   -5.047448|   -7.780151|    0.824038|    0.012026|
|         315|   -5.049977|   -7.786088|    0.824038|    0.012026|
|         316|   -5.053927|   -7.791565|    0.824038|    0.012025|
|         317|   -5.063184|   -7.796542|    0.824037|    0.012025|
|         318|   -5.078466|   -7.800989|    0.824037|    0.012025|
|         319|   -5.097874|   -7.804903|    0.824037|    0.012025|
|         320|   -5.118304|   -7.808313|    0.824037|    0.012025|
|         321|   -5.137184|   -7.811257|    0.824037|    0.012025|
|         322|   -5.153683|   -7.813764|    0.824037|    0.012024|
|         323|   -5.168615|   -7.815866|    0.824037|    0.012024|
|         324|   -5.183344|   -7.817596|    0.824037|    0.012024|
|         325|   -5.198757|   -7.819010|    0.824038|    0.012024|
|         326|   -5.214917|   -7.820179|    0.824038|    0.012024|
|         327|   -5.231275|   -7.821197|    0.824038|    0.012024|
|         328|   -5.247044|   -7.822164|    0.824039|    0.012024|
|         329|   -5.261473|   -7.823181|    0.824039|    0.012024|
|         330|   -5.274004|   -7.824340|    0.824040|    0.012024|
|         331|   -5.284367|   -7.825723|    0.824040|    0.012024|
|         332|   -5.292675|   -7.827397|    0.824041|    0.012024|
|         333|   -5.299445|   -7.829412|    0.824042|    0.012024|
|         334|   -5.305499|   -7.831795|    0.824042|    0.012024|
|         335|   -5.311755|   -7.834559|    0.824043|    0.012024|
|         336|   -5.319002|   -7.837695|    0.824044|    0.012024|
|         337|   -5.327754|   -7.841180|    0.824044|    0.012024|
|         338|   -5.338175|   -7.844974|    0.824045|    0.012024|
|         339|   -5.350073|   -7.849026|    0.824046|    0.012024|
|         340|   -5.362930|   -7.853273|    0.824046|    0.012024|
|         341|   -5.375986|   -7.857645|    0.824047|    0.012024|
|         342|   -5.388386|   -7.862068|    0.824048|    0.012024|
|         343|   -5.399384|   -7.866469|    0.824048|    0.012024|
|         344|   -5.408559|   -7.870781|    0.824049|    0.012024|
|         345|   -5.415936|   -7.874935|    0.824049|    0.012025|
|         346|   -5.421963|   -7.878871|    0.824050|    0.012025|
|         347|   -5.427342|   -7.882544|    0.824050|    0.012025|
|         348|   -5.432809|   -7.885921|    0.824050|    0.012025|
|         349|   -5.438949|   -7.888979|    0.824051|    0.012025|
|         350|   -5.446090|   -7.891708|    0.824051|    0.012025|
|         351|   -5.454277|   -7.894111|    0.824051|    0.012025|
|         352|   -5.463312|   -7.896209|    0.824051|    0.012025|
|         353|   -5.472831|   -7.898040|    0.824050|    0.012026|
|         354|   -5.482403|   -7.899644|    0.824050|    0.012026|
|         355|   -5.491627|   -7.901069|    0.824050|    0.012026|
|         356|   -5.500217|   -7.902373|    0.824049|    0.012026|
|         357|   -5.508041|   -7.903622|    0.824049|    0.012026|
|         358|   -5.515127|   -7.904886|    0.824048|    0.012026|
|         359|   -5.521621|   -7.906239|    0.824047|    0.012026|
|         360|   -5.527732|   -7.907747|    0.824046|    0.012026|
|         361|   -5.533676|   -7.909459|    0.824045|    0.012027|
|         362|   -5.539635|   -7.911419|    0.824044|    0.012027|
|         363|   -5.545734|   -7.913660|    0.824043|    0.012027|
|         364|   -5.552043|   -7.916205|    0.824042|    0.012027|
|         365|   -5.558589|   -7.919064|    0.824040|    0.012027|
|         366|   -5.565370|   -7.922234|    0.824039|    0.012027|
|         367|   -5.572372|   -7.925694|    0.824038|    0.012027|
|         368|   -5.579584|   -7.929413|    0.824036|    0.012027|
|         369|   -5.587002|   -7.933345|    0.824035|    0.012027|
|         370|   -5.594625|   -7.937431|    0.824034|    0.012027|
|         371|   -5.602459|   -7.941604|    0.824032|    0.012027|
|         372|   -5.610507|   -7.945775|    0.824031|    0.012027|
|         373|   -5.618763|   -7.949849|    0.824030|    0.012027|
|         374|   -5.627212|   -7.953726|    0.824029|    0.012027|
|         375|   -5.635827|   -7.957309|    0.824027|    0.012027|
|         376|   -5.644569|   -7.960501|    0.824026|    0.012027|
|         377|   -5.653388|   -7.963218|    0.824025|    0.012027|
|         378|   -5.662229|   -7.965392|    0.824024|    0.012027|
|         379|   -5.671026|   -7.966974|    0.824024|    0.012027|
|         380|   -5.679712|   -7.967939|    0.824023|    0.012027|
|         381|   -5.688219|   -7.968287|    0.824022|    0.012027|
|         382|   -5.696477|   -7.968049|    0.824022|    0.012027|
|         383|   -5.704417|   -7.967278|    0.824022|    0.012027|
|         384|   -5.711974|   -7.966048|    0.824021|    0.012027|
|         385|   -5.719085|   -7.964449|    0.824021|    0.012027|
|         386|   -5.725694|   -7.962587|    0.824021|    0.012027|
|         387|   -5.731755|   -7.960571|    0.824021|    0.012027|
|         388|   -5.737230|   -7.958513|    0.824022|    0.012027|
|         389|   -5.742096|   -7.956522|    0.824022|    0.012027|
|         390|   -5.746340|   -7.954701|    0.824022|    0.012027|
|         391|   -5.749963|   -7.953146|    0.824023|    0.012027|
|         392|   -5.752980|   -7.951940|    0.824024|    0.012027|
|         393|   -5.755414|   -7.951153|    0.824024|    0.012027|
|         394|   -5.757302|   -7.950844|    0.824025|    0.012026|
|         395|   -5.758685|   -7.951050|    0.824026|    0.012026|
|         396|   -5.759611|   -7.951795|    0.824027|    0.012026|
|         397|   -5.760132|   -7.953100|    0.824028|    0.012026|
|         398|   -5.760302|   -7.954970|    0.824029|    0.012026|
|         399|   -5.760175|   -7.957395|    0.824030|    0.012026|
|         400|   -5.759804|   -7.960359|    0.824031|    0.012026|
|         401|   -5.759240|   -7.963842|    0.824032|    0.012024|
+-----------------------------------------------------------------------+
|Fixed CL Mode                           |Value                         |
+-----------------------------------------------------------------------+
|Current CL                              |0.824032                      |
|Target CL                               |0.824                         |
|Previous AOA                            |2.79089                       |
|Changed AoA by                          |-0.000155048                  |
+-----------------------------------------------------------------------+
+----------------------------------------------------------------+
|  Inner_Iter|    rms[Rho]|     rms[nu]|          CL|          CD|
+----------------------------------------------------------------+
|         402|   -4.002795|   -7.874295|    0.824033|    0.012023|
|         403|   -4.386279|   -7.920496|    0.824034|    0.012023|
|         404|   -4.627990|   -7.939017|    0.824036|    0.012023|
|         405|   -4.705999|   -7.951818|    0.824037|    0.012023|
|         406|   -4.759537|   -7.962686|    0.824038|    0.012023|
|         407|   -4.828842|   -7.972515|    0.824039|    0.012023|
|         408|   -4.914197|   -7.981597|    0.824040|    0.012023|
|         409|   -5.002994|   -7.990114|    0.824042|    0.012023|
|         410|   -5.079227|   -7.998168|    0.824043|    0.012022|
|         411|   -5.135036|   -8.005762|    0.824044|    0.012022|
|         412|   -5.172149|   -8.012904|    0.824045|    0.012022|
|         413|   -5.194209|   -8.019704|    0.824046|    0.012022|
|         414|   -5.204733|   -8.026346|    0.824047|    0.012022|
|         415|   -5.209206|   -8.032969|    0.824048|    0.012022|
|         416|   -5.213998|   -8.039616|    0.824049|    0.012022|
|         417|   -5.223484|   -8.046258|    0.824050|    0.012022|
|         418|   -5.238777|   -8.052875|    0.824051|    0.012022|
|         419|   -5.258254|   -8.059493|    0.824052|    0.012022|
|         420|   -5.279023|   -8.066172|    0.824053|    0.012021|
|         421|   -5.298674|   -8.072958|    0.824054|    0.012021|
|         422|   -5.316470|   -8.079860|    0.824055|    0.012021|
|         423|   -5.333220|   -8.086840|    0.824055|    0.012021|
|         424|   -5.350185|   -8.093819|    0.824056|    0.012021|
|         425|   -5.368063|   -8.100725|    0.824057|    0.012021|
|         426|   -5.386650|   -8.107485|    0.824057|    0.012021|
|         427|   -5.405086|   -8.114031|    0.824058|    0.012021|
|         428|   -5.422290|   -8.120351|    0.824058|    0.012021|
|         429|   -5.437327|   -8.126428|    0.824059|    0.012021|
|         430|   -5.449617|   -8.132269|    0.824059|    0.012021|
|         431|   -5.459041|   -8.137885|    0.824060|    0.012021|
|         432|   -5.465985|   -8.143291|    0.824060|    0.012021|
|         433|   -5.471276|   -8.148513|    0.824060|    0.012021|
|         434|   -5.475990|   -8.153554|    0.824060|    0.012021|
|         435|   -5.481194|   -8.158414|    0.824060|    0.012021|
|         436|   -5.487717|   -8.163087|    0.824061|    0.012021|
|         437|   -5.496023|   -8.167555|    0.824061|    0.012021|
|         438|   -5.506172|   -8.171800|    0.824061|    0.012021|
|         439|   -5.517835|   -8.175809|    0.824061|    0.012021|
|         440|   -5.530354|   -8.179571|    0.824060|    0.012021|
|         441|   -5.542845|   -8.183087|    0.824060|    0.012021|
|         442|   -5.554368|   -8.186369|    0.824060|    0.012021|
|         443|   -5.564167|   -8.189441|    0.824060|    0.012021|
|         444|   -5.571881|   -8.192338|    0.824060|    0.012021|
|         445|   -5.577660|   -8.195093|    0.824059|    0.012021|
|         446|   -5.582092|   -8.197745|    0.824059|    0.012021|
|         447|   -5.586000|   -8.200333|    0.824059|    0.012021|
|         448|   -5.590199|   -8.202886|    0.824058|    0.012021|
|         449|   -5.595312|   -8.205430|    0.824058|    0.012021|
|         450|   -5.601677|   -8.207977|    0.824057|    0.012021|
|         451|   -5.609335|   -8.210539|    0.824057|    0.012021|
|         452|   -5.618081|   -8.213104|    0.824056|    0.012021|
|         453|   -5.627550|   -8.215668|    0.824056|    0.012022|
|         454|   -5.637313|   -8.218213|    0.824055|    0.012022|
|         455|   -5.646973|   -8.220703|    0.824055|    0.012022|
|         456|   -5.656247|   -8.223107|    0.824054|    0.012022|
|         457|   -5.665004|   -8.225389|    0.824053|    0.012022|
|         458|   -5.673264|   -8.227522|    0.824052|    0.012022|
|         459|   -5.681162|   -8.229483|    0.824052|    0.012022|
|         460|   -5.688891|   -8.231251|    0.824051|    0.012022|
|         461|   -5.696649|   -8.232816|    0.824050|    0.012022|
|         462|   -5.704595|   -8.234181|    0.824049|    0.012022|
|         463|   -5.712829|   -8.235359|    0.824048|    0.012022|
|         464|   -5.721393|   -8.236382|    0.824047|    0.012023|
|         465|   -5.730281|   -8.237298|    0.824046|    0.012023|
|         466|   -5.739455|   -8.238165|    0.824045|    0.012023|
|         467|   -5.748867|   -8.239056|    0.824044|    0.012023|
|         468|   -5.758470|   -8.240050|    0.824043|    0.012023|
|         469|   -5.768228|   -8.241238|    0.824042|    0.012023|
|         470|   -5.778115|   -8.242705|    0.824041|    0.012023|
|         471|   -5.788112|   -8.244534|    0.824040|    0.012023|
|         472|   -5.798205|   -8.246799|    0.824038|    0.012023|
|         473|   -5.808374|   -8.249560|    0.824037|    0.012023|
|         474|   -5.818594|   -8.252861|    0.824036|    0.012023|
|         475|   -5.828832|   -8.256723|    0.824035|    0.012023|
|         476|   -5.839045|   -8.261143|    0.824034|    0.012023|
|         477|   -5.849186|   -8.266086|    0.824034|    0.012023|
|         478|   -5.859205|   -8.271481|    0.824033|    0.012024|
|         479|   -5.869054|   -8.277223|    0.824032|    0.012024|
|         480|   -5.878690|   -8.283169|    0.824031|    0.012024|
|         481|   -5.888075|   -8.289136|    0.824030|    0.012024|
|         482|   -5.897182|   -8.294912|    0.824030|    0.012024|
|         483|   -5.905989|   -8.300259|    0.824029|    0.012024|
|         484|   -5.914487|   -8.304927|    0.824029|    0.012024|
|         485|   -5.922673|   -8.308677|    0.824028|    0.012024|
|         486|   -5.930553|   -8.311297|    0.824028|    0.012024|
|         487|   -5.938143|   -8.312624|    0.824028|    0.012024|
|         488|   -5.945464|   -8.312567|    0.824027|    0.012024|
|         489|   -5.952543|   -8.311119|    0.824027|    0.012024|
|         490|   -5.959411|   -8.308358|    0.824027|    0.012024|
|         491|   -5.966102|   -8.304442|    0.824027|    0.012023|
|         492|   -5.972652|   -8.299594|    0.824027|    0.012023|
|         493|   -5.979095|   -8.294081|    0.824028|    0.012023|
|         494|   -5.985462|   -8.288192|    0.824028|    0.012023|
|         495|   -5.991783|   -8.282216|    0.824028|    0.012023|
|         496|   -5.998081|   -8.276431|    0.824028|    0.012023|
|         497|   -6.004374|   -8.271088|    0.824029|    0.012023|
|         498|   -6.010674|   -8.266404|    0.824029|    0.012023|
|         499|   -6.016988|   -8.262563|    0.824030|    0.012023|
|         500|   -6.023317|   -8.259708|    0.824030|    0.012023|
|         501|   -6.029654|   -8.257950|    0.824031|    0.012021|
+-----------------------------------------------------------------------+
|Fixed CL Mode                           |Value                         |
+-----------------------------------------------------------------------+
|Current CL                              |0.824031                      |
|Target CL                               |0.824                         |
|Previous AOA                            |2.79074                       |
|Changed AoA by                          |-0.000151192                  |
+-----------------------------------------------------------------------+
+----------------------------------------------------------------+
|  Inner_Iter|    rms[Rho]|     rms[nu]|          CL|          CD|
+----------------------------------------------------------------+
|         502|   -4.013803|   -8.022784|    0.824031|    0.012020|
|         503|   -4.397385|   -8.111590|    0.824032|    0.012020|
|         504|   -4.638928|   -8.146738|    0.824033|    0.012020|
|         505|   -4.716647|   -8.169474|    0.824033|    0.012020|
|         506|   -4.770193|   -8.188257|    0.824034|    0.012020|
|         507|   -4.839884|   -8.205148|    0.824035|    0.012020|
|         508|   -4.926218|   -8.220724|    0.824035|    0.012020|
|         509|   -5.016925|   -8.235270|    0.824036|    0.012020|
|         510|   -5.096071|   -8.248865|    0.824037|    0.012020|
|         511|   -5.155274|   -8.261291|    0.824038|    0.012020|
|         512|   -5.195522|   -8.272321|    0.824038|    0.012019|
|         513|   -5.219890|   -8.282042|    0.824039|    0.012019|
|         514|   -5.231671|   -8.290806|    0.824040|    0.012019|
|         515|   -5.236626|   -8.298842|    0.824040|    0.012019|
|         516|   -5.241675|   -8.306097|    0.824041|    0.012019|
|         517|   -5.251635|   -8.312331|    0.824041|    0.012019|
|         518|   -5.267807|   -8.317379|    0.824042|    0.012019|
|         519|   -5.288531|   -8.321276|    0.824043|    0.012019|
|         520|   -5.310722|   -8.324210|    0.824043|    0.012019|
|         521|   -5.331747|   -8.326380|    0.824043|    0.012019|
|         522|   -5.350755|   -8.327887|    0.824044|    0.012019|
|         523|   -5.368605|   -8.328732|    0.824044|    0.012019|
|         524|   -5.386693|   -8.328847|    0.824045|    0.012018|
|         525|   -5.405822|   -8.328216|    0.824045|    0.012018|
|         526|   -5.425812|   -8.326834|    0.824045|    0.012018|
|         527|   -5.445743|   -8.324826|    0.824045|    0.012018|
|         528|   -5.464429|   -8.322348|    0.824045|    0.012018|
|         529|   -5.480813|   -8.319576|    0.824046|    0.012018|
|         530|   -5.494210|   -8.316686|    0.824046|    0.012018|
|         531|   -5.504441|   -8.313836|    0.824046|    0.012018|
|         532|   -5.511897|   -8.311144|    0.824046|    0.012018|
|         533|   -5.517485|   -8.308726|    0.824046|    0.012018|
|         534|   -5.522412|   -8.306608|    0.824045|    0.012018|
|         535|   -5.527889|   -8.304786|    0.824045|    0.012018|
|         536|   -5.534870|   -8.303235|    0.824045|    0.012018|
|         537|   -5.543901|   -8.301889|    0.824045|    0.012018|
|         538|   -5.555076|   -8.300673|    0.824045|    0.012018|
|         539|   -5.568045|   -8.299509|    0.824044|    0.012018|
|         540|   -5.582062|   -8.298317|    0.824044|    0.012018|
|         541|   -5.596090|   -8.297038|    0.824044|    0.012018|
|         542|   -5.608997|   -8.295625|    0.824044|    0.012018|
|         543|   -5.619834|   -8.294051|    0.824043|    0.012018|
|         544|   -5.628131|   -8.292314|    0.824043|    0.012018|
|         545|   -5.634046|   -8.290421|    0.824042|    0.012018|
|         546|   -5.638293|   -8.288399|    0.824042|    0.012018|
|         547|   -5.641885|   -8.286271|    0.824041|    0.012018|
|         548|   -5.645827|   -8.284062|    0.824041|    0.012019|
|         549|   -5.650888|   -8.281789|    0.824040|    0.012019|
|         550|   -5.657487|   -8.279465|    0.824040|    0.012019|
|         551|   -5.665692|   -8.277097|    0.824039|    0.012019|
|         552|   -5.675272|   -8.274679|    0.824038|    0.012019|
|         553|   -5.685801|   -8.272220|    0.824038|    0.012019|
|         554|   -5.696765|   -8.269694|    0.824037|    0.012019|
|         555|   -5.707686|   -8.267080|    0.824036|    0.012019|
|         556|   -5.718215|   -8.264359|    0.824035|    0.012019|
|         557|   -5.728184|   -8.261519|    0.824034|    0.012019|
|         558|   -5.737621|   -8.258558|    0.824034|    0.012019|
|         559|   -5.746696|   -8.255491|    0.824033|    0.012019|
|         560|   -5.755664|   -8.252340|    0.824032|    0.012020|
|         561|   -5.764789|   -8.249143|    0.824031|    0.012020|
|         562|   -5.774293|   -8.245948|    0.824030|    0.012020|
|         563|   -5.784330|   -8.242821|    0.824029|    0.012020|
|         564|   -5.794980|   -8.239834|    0.824027|    0.012020|
|         565|   -5.806266|   -8.237070|    0.824026|    0.012020|
|         566|   -5.818169|   -8.234619|    0.824025|    0.012020|
|         567|   -5.830659|   -8.232570|    0.824024|    0.012020|
|         568|   -5.843702|   -8.231010|    0.824023|    0.012020|
|         569|   -5.857280|   -8.230023|    0.824022|    0.012020|
|         570|   -5.871386|   -8.229679|    0.824020|    0.012020|
|         571|   -5.886021|   -8.230037|    0.824019|    0.012021|
|         572|   -5.901188|   -8.231140|    0.824018|    0.012021|
|         573|   -5.916881|   -8.233008|    0.824017|    0.012021|
|         574|   -5.933077|   -8.235637|    0.824016|    0.012021|
|         575|   -5.949732|   -8.238998|    0.824015|    0.012021|
|         576|   -5.966774|   -8.243030|    0.824014|    0.012021|
|         577|   -5.984105|   -8.247641|    0.824013|    0.012021|
|         578|   -6.001603|   -8.252706|    0.824012|    0.012021|
|         579|   -6.019122|   -8.258066|    0.824011|    0.012021|
|         580|   -6.036495|   -8.263531|    0.824010|    0.012021|
|         581|   -6.053542|   -8.268884|    0.824009|    0.012021|
|         582|   -6.070071|   -8.273893|    0.824009|    0.012022|
|         583|   -6.085888|   -8.278319|    0.824008|    0.012022|
|         584|   -6.100804|   -8.281937|    0.824008|    0.012022|
|         585|   -6.114646|   -8.284549|    0.824007|    0.012022|
|         586|   -6.127266|   -8.286009|    0.824007|    0.012022|
|         587|   -6.138554|   -8.286232|    0.824007|    0.012022|
|         588|   -6.148447|   -8.285209|    0.824006|    0.012022|
|         589|   -6.156931|   -8.283005|    0.824006|    0.012022|
|         590|   -6.164045|   -8.279753|    0.824006|    0.012022|
|         591|   -6.169872|   -8.275643|    0.824006|    0.012022|
|         592|   -6.174535|   -8.270900|    0.824007|    0.012022|
|         593|   -6.178181|   -8.265770|    0.824007|    0.012022|
|         594|   -6.180972|   -8.260500|    0.824007|    0.012022|
|         595|   -6.183075|   -8.255324|    0.824008|    0.012022|
|         596|   -6.184648|   -8.250453|    0.824008|    0.012022|
|         597|   -6.185839|   -8.246070|    0.824008|    0.012022|
|         598|   -6.186775|   -8.242323|    0.824009|    0.012022|
|         599|   -6.187567|   -8.239329|    0.824010|    0.012022|
|         600|   -6.188304|   -8.237166|    0.824010|    0.012022|
|         601|   -6.189056|   -8.235882|    0.824011|    0.012021|
+-----------------------------------------------------------------------+
|Fixed CL Mode                           |Value                         |
+-----------------------------------------------------------------------+
|Current CL                              |0.824011                      |
|Target CL                               |0.824                         |
|Previous AOA                            |2.79058                       |
|Changed AoA by                          |-5.12133e-05                  |
+-----------------------------------------------------------------------+
+----------------------------------------------------------------+
|  Inner_Iter|    rms[Rho]|     rms[nu]|          CL|          CD|
+----------------------------------------------------------------+
|         602|   -4.483904|   -8.194492|    0.824012|    0.012021|
|         603|   -4.866130|   -8.214304|    0.824012|    0.012021|
|         604|   -5.102817|   -8.221633|    0.824013|    0.012021|
|         605|   -5.177234|   -8.227059|    0.824014|    0.012021|
|         606|   -5.229199|   -8.232171|    0.824015|    0.012021|
|         607|   -5.297348|   -8.237241|    0.824015|    0.012021|
|         608|   -5.381744|   -8.242267|    0.824016|    0.012021|
|         609|   -5.470647|   -8.247176|    0.824017|    0.012021|
|         610|   -5.549406|   -8.251848|    0.824018|    0.012021|
|         611|   -5.610436|   -8.256114|    0.824019|    0.012021|
|         612|   -5.654201|   -8.259805|    0.824019|    0.012021|
|         613|   -5.682580|   -8.262798|    0.824020|    0.012021|
|         614|   -5.697706|   -8.265008|    0.824021|    0.012021|
|         615|   -5.704689|   -8.266373|    0.824022|    0.012021|
|         616|   -5.710464|   -8.266839|    0.824022|    0.012021|
|         617|   -5.720200|   -8.266382|    0.824023|    0.012021|
|         618|   -5.735582|   -8.265035|    0.824024|    0.012021|
|         619|   -5.755307|   -8.262888|    0.824024|    0.012021|
|         620|   -5.776657|   -8.260076|    0.824025|    0.012021|
|         621|   -5.797332|   -8.256758|    0.824025|    0.012020|
|         622|   -5.816658|   -8.253092|    0.824026|    0.012020|
|         623|   -5.835455|   -8.249235|    0.824026|    0.012020|
|         624|   -5.854911|   -8.245328|    0.824026|    0.012020|
|         625|   -5.875535|   -8.241508|    0.824027|    0.012020|
|         626|   -5.896813|   -8.237902|    0.824027|    0.012020|
|         627|   -5.917488|   -8.234619|    0.824027|    0.012020|
|         628|   -5.936115|   -8.231760|    0.824027|    0.012020|
|         629|   -5.951547|   -8.229412|    0.824028|    0.012020|
|         630|   -5.963237|   -8.227636|    0.824028|    0.012020|
|         631|   -5.971331|   -8.226476|    0.824028|    0.012020|
|         632|   -5.976611|   -8.225953|    0.824028|    0.012020|
|         633|   -5.980295|   -8.226071|    0.824028|    0.012020|
|         634|   -5.983740|   -8.226814|    0.824028|    0.012020|
|         635|   -5.988141|   -8.228150|    0.824028|    0.012019|
|         636|   -5.994317|   -8.230029|    0.824027|    0.012019|
|         637|   -6.002621|   -8.232391|    0.824027|    0.012019|
|         638|   -6.012932|   -8.235164|    0.824027|    0.012019|
|         639|   -6.024700|   -8.238273|    0.824027|    0.012019|
|         640|   -6.037020|   -8.241636|    0.824027|    0.012019|
|         641|   -6.048771|   -8.245174|    0.824027|    0.012019|
|         642|   -6.058840|   -8.248810|    0.824026|    0.012019|
|         643|   -6.066406|   -8.252474|    0.824026|    0.012019|
|         644|   -6.071189|   -8.256104|    0.824026|    0.012019|
|         645|   -6.073524|   -8.259646|    0.824026|    0.012019|
|         646|   -6.074225|   -8.263059|    0.824025|    0.012019|
|         647|   -6.074298|   -8.266315|    0.824025|    0.012019|
|         648|   -6.074662|   -8.269395|    0.824025|    0.012019|
|         649|   -6.075967|   -8.272288|    0.824025|    0.012019|
|         650|   -6.078523|   -8.274997|    0.824024|    0.012019|
|         651|   -6.082326|   -8.277524|    0.824024|    0.012019|
|         652|   -6.087135|   -8.279877|    0.824024|    0.012019|
|         653|   -6.092572|   -8.282073|    0.824023|    0.012019|
|         654|   -6.098232|   -8.284116|    0.824023|    0.012019|
|         655|   -6.103770|   -8.286011|    0.824023|    0.012019|
|         656|   -6.108974|   -8.287757|    0.824023|    0.012019|
|         657|   -6.113779|   -8.289348|    0.824022|    0.012019|
|         658|   -6.118258|   -8.290776|    0.824022|    0.012019|
|         659|   -6.122572|   -8.292025|    0.824022|    0.012019|
|         660|   -6.126922|   -8.293080|    0.824021|    0.012019|
|         661|   -6.131495|   -8.293925|    0.824021|    0.012019|
|         662|   -6.136436|   -8.294545|    0.824021|    0.012019|
|         663|   -6.141836|   -8.294932|    0.824020|    0.012019|
|         664|   -6.147734|   -8.295083|    0.824020|    0.012020|
|         665|   -6.154130|   -8.295006|    0.824020|    0.012020|
|         666|   -6.161003|   -8.294719|    0.824019|    0.012020|
|         667|   -6.168324|   -8.294254|    0.824019|    0.012020|
|         668|   -6.176064|   -8.293650|    0.824019|    0.012020|
|         669|   -6.184204|   -8.292961|    0.824018|    0.012020|
|         670|   -6.192730|   -8.292245|    0.824018|    0.012020|
|         671|   -6.201633|   -8.291567|    0.824018|    0.012020|
|         672|   -6.210900|   -8.290996|    0.824017|    0.012020|
|         673|   -6.220511|   -8.290600|    0.824017|    0.012020|
|         674|   -6.230434|   -8.290441|    0.824017|    0.012020|
|         675|   -6.240626|   -8.290580|    0.824016|    0.012020|
|         676|   -6.251027|   -8.291063|    0.824016|    0.012021|
|         677|   -6.261563|   -8.291929|    0.824016|    0.012021|
|         678|   -6.272152|   -8.293203|    0.824015|    0.012021|
|         679|   -6.282700|   -8.294896|    0.824015|    0.012021|
|         680|   -6.293108|   -8.297002|    0.824015|    0.012021|
|         681|   -6.303272|   -8.299501|    0.824014|    0.012021|
|         682|   -6.313091|   -8.302356|    0.824014|    0.012021|
|         683|   -6.322464|   -8.305517|    0.824014|    0.012021|
|         684|   -6.331299|   -8.308918|    0.824013|    0.012021|
|         685|   -6.339514|   -8.312481|    0.824013|    0.012021|
|         686|   -6.347043|   -8.316120|    0.824013|    0.012022|
|         687|   -6.353837|   -8.319741|    0.824013|    0.012022|
|         688|   -6.359865|   -8.323252|    0.824013|    0.012022|
|         689|   -6.365123|   -8.326561|    0.824013|    0.012022|
|         690|   -6.369624|   -8.329588|    0.824012|    0.012022|
|         691|   -6.373403|   -8.332262|    0.824012|    0.012022|
|         692|   -6.376514|   -8.334535|    0.824012|    0.012022|
|         693|   -6.379024|   -8.336377|    0.824012|    0.012022|
|         694|   -6.381012|   -8.337782|    0.824012|    0.012022|
|         695|   -6.382561|   -8.338765|    0.824012|    0.012022|
|         696|   -6.383761|   -8.339366|    0.824012|    0.012022|
|         697|   -6.384698|   -8.339641|    0.824012|    0.012022|
|         698|   -6.385457|   -8.339657|    0.824012|    0.012022|
|         699|   -6.386118|   -8.339495|    0.824012|    0.012022|
|         700|   -6.386754|   -8.339234|    0.824012|    0.012022|
|         701|   -6.387431|   -8.338954|    0.824013|    0.012022|
+-----------------------------------------------------------------------+
|Fixed CL Mode                           |Value                         |
+-----------------------------------------------------------------------+
|Current CL                              |0.824013                      |
|Target CL                               |0.824                         |
|Previous AOA                            |2.79053                       |
|Changed AoA by                          |-6.23684e-05                  |
+-----------------------------------------------------------------------+
+----------------------------------------------------------------+
|  Inner_Iter|    rms[Rho]|     rms[nu]|          CL|          CD|
+----------------------------------------------------------------+
|         702|   -4.398446|   -8.253330|    0.824013|    0.012022|
|         703|   -4.782405|   -8.292199|    0.824013|    0.012022|
|         704|   -5.024227|   -8.304860|    0.824013|    0.012022|
|         705|   -5.101382|   -8.312178|    0.824013|    0.012022|
|         706|   -5.154323|   -8.317755|    0.824013|    0.012022|
|         707|   -5.223549|   -8.322442|    0.824014|    0.012022|
|         708|   -5.309527|   -8.326511|    0.824014|    0.012022|
|         709|   -5.400035|   -8.330112|    0.824014|    0.012022|
|         710|   -5.479257|   -8.333329|    0.824014|    0.012022|
|         711|   -5.538836|   -8.336160|    0.824014|    0.012022|
|         712|   -5.579622|   -8.338606|    0.824014|    0.012022|
|         713|   -5.604510|   -8.340746|    0.824015|    0.012022|
|         714|   -5.616664|   -8.342685|    0.824015|    0.012022|
|         715|   -5.621815|   -8.344500|    0.824015|    0.012022|
|         716|   -5.626929|   -8.346191|    0.824015|    0.012022|
|         717|   -5.636884|   -8.347719|    0.824015|    0.012022|
|         718|   -5.653018|   -8.349056|    0.824015|    0.012022|
|         719|   -5.673681|   -8.350215|    0.824016|    0.012022|
|         720|   -5.695779|   -8.351225|    0.824016|    0.012022|
|         721|   -5.716664|   -8.352124|    0.824016|    0.012022|
|         722|   -5.735468|   -8.352932|    0.824016|    0.012022|
|         723|   -5.753039|   -8.353645|    0.824016|    0.012022|
|         724|   -5.770763|   -8.354259|    0.824016|    0.012022|
|         725|   -5.789424|   -8.354768|    0.824016|    0.012022|
|         726|   -5.808828|   -8.355187|    0.824016|    0.012022|
|         727|   -5.828052|   -8.355544|    0.824016|    0.012022|
|         728|   -5.845928|   -8.355863|    0.824016|    0.012022|
|         729|   -5.861447|   -8.356205|    0.824016|    0.012022|
|         730|   -5.873988|   -8.356612|    0.824016|    0.012022|
|         731|   -5.883441|   -8.357128|    0.824016|    0.012022|
|         732|   -5.890254|   -8.357783|    0.824016|    0.012021|
|         733|   -5.895358|   -8.358604|    0.824016|    0.012021|
|         734|   -5.899954|   -8.359604|    0.824016|    0.012021|
|         735|   -5.905225|   -8.360785|    0.824016|    0.012021|
|         736|   -5.912095|   -8.362136|    0.824016|    0.012021|
|         737|   -5.921085|   -8.363643|    0.824016|    0.012021|
|         738|   -5.932280|   -8.365278|    0.824016|    0.012021|
|         739|   -5.945330|   -8.367011|    0.824016|    0.012021|
|         740|   -5.959509|   -8.368816|    0.824015|    0.012021|
|         741|   -5.973803|   -8.370663|    0.824015|    0.012021|
|         742|   -5.987102|   -8.372526|    0.824015|    0.012021|
|         743|   -5.998468|   -8.374384|    0.824015|    0.012021|
|         744|   -6.007415|   -8.376223|    0.824015|    0.012021|
|         745|   -6.014068|   -8.378029|    0.824015|    0.012021|
|         746|   -6.019098|   -8.379796|    0.824015|    0.012021|
|         747|   -6.023484|   -8.381519|    0.824014|    0.012021|
|         748|   -6.028211|   -8.383196|    0.824014|    0.012021|
|         749|   -6.034043|   -8.384827|    0.824014|    0.012021|
|         750|   -6.041408|   -8.386409|    0.824014|    0.012021|
|         751|   -6.050384|   -8.387945|    0.824014|    0.012021|
|         752|   -6.060752|   -8.389433|    0.824013|    0.012021|
|         753|   -6.072087|   -8.390877|    0.824013|    0.012021|
|         754|   -6.083871|   -8.392274|    0.824013|    0.012021|
|         755|   -6.095611|   -8.393623|    0.824013|    0.012021|
|         756|   -6.106931|   -8.394922|    0.824012|    0.012020|
|         757|   -6.117642|   -8.396177|    0.824012|    0.012020|
|         758|   -6.127745|   -8.397394|    0.824012|    0.012020|
|         759|   -6.137393|   -8.398584|    0.824011|    0.012020|
|         760|   -6.146826|   -8.399763|    0.824011|    0.012020|
|         761|   -6.156298|   -8.400950|    0.824011|    0.012020|
|         762|   -6.166024|   -8.402170|    0.824010|    0.012020|
|         763|   -6.176149|   -8.403453|    0.824010|    0.012020|
|         764|   -6.186741|   -8.404833|    0.824010|    0.012020|
|         765|   -6.197812|   -8.406349|    0.824009|    0.012020|
|         766|   -6.209330|   -8.408042|    0.824009|    0.012020|
|         767|   -6.221249|   -8.409956|    0.824009|    0.012020|
|         768|   -6.233526|   -8.412132|    0.824008|    0.012020|
|         769|   -6.246130|   -8.414609|    0.824008|    0.012020|
|         770|   -6.259044|   -8.417422|    0.824007|    0.012020|
|         771|   -6.272263|   -8.420598|    0.824007|    0.012020|
|         772|   -6.285783|   -8.424155|    0.824007|    0.012020|
|         773|   -6.299595|   -8.428101|    0.824006|    0.012020|
|         774|   -6.313671|   -8.432429|    0.824006|    0.012020|
|         775|   -6.327968|   -8.437120|    0.824006|    0.012020|
|         776|   -6.342417|   -8.442136|    0.824005|    0.012020|
|         777|   -6.356931|   -8.447424|    0.824005|    0.012020|
|         778|   -6.371404|   -8.452917|    0.824005|    0.012020|
|         779|   -6.385717|   -8.458529|    0.824005|    0.012020|
|         780|   -6.399742|   -8.464163|    0.824004|    0.012020|
|         781|   -6.413345|   -8.469714|    0.824004|    0.012020|
|         782|   -6.426395|   -8.475068|    0.824004|    0.012020|
|         783|   -6.438763|   -8.480114|    0.824004|    0.012020|
|         784|   -6.450334|   -8.484747|    0.824004|    0.012020|
|         785|   -6.461007|   -8.488874|    0.824004|    0.012020|
|         786|   -6.470706|   -8.492425|    0.824004|    0.012020|
|         787|   -6.479379|   -8.495352|    0.824004|    0.012021|
|         788|   -6.487005|   -8.497640|    0.824004|    0.012021|
|         789|   -6.493596|   -8.499302|    0.824004|    0.012021|
|         790|   -6.499190|   -8.500384|    0.824004|    0.012021|
|         791|   -6.503855|   -8.500956|    0.824004|    0.012021|
|         792|   -6.507679|   -8.501111|    0.824005|    0.012021|
|         793|   -6.510764|   -8.500959|    0.824005|    0.012021|
|         794|   -6.513222|   -8.500616|    0.824005|    0.012021|
|         795|   -6.515168|   -8.500204|    0.824005|    0.012021|
|         796|   -6.516711|   -8.499837|    0.824006|    0.012021|
|         797|   -6.517956|   -8.499621|    0.824006|    0.012021|
|         798|   -6.519000|   -8.499650|    0.824006|    0.012021|
|         799|   -6.519925|   -8.500001|    0.824007|    0.012021|
|         800|   -6.520806|   -8.500732|    0.824007|    0.012021|
|         801|   -6.521705|   -8.501884|    0.824007|    0.012021|
+-----------------------------------------------------------------------+
|Fixed CL Mode                           |Value                         |
+-----------------------------------------------------------------------+
|Current CL                              |0.824007                      |
|Target CL                               |0.824                         |
|Previous AOA                            |2.79047                       |
|Changed AoA by                          |-3.43627e-05                  |
+-----------------------------------------------------------------------+
+----------------------------------------------------------------+
|  Inner_Iter|    rms[Rho]|     rms[nu]|          CL|          CD|
+----------------------------------------------------------------+
|         802|   -4.657283|   -8.444145|    0.824008|    0.012021|
|         803|   -5.040890|   -8.473690|    0.824008|    0.012021|
|         804|   -5.281754|   -8.484670|    0.824008|    0.012021|
|         805|   -5.358407|   -8.492214|    0.824009|    0.012021|
|         806|   -5.411108|   -8.498767|    0.824009|    0.012021|
|         807|   -5.479989|   -8.504846|    0.824009|    0.012021|
|         808|   -5.565410|   -8.510556|    0.824010|    0.012021|
|         809|   -5.655224|   -8.515914|    0.824010|    0.012021|
|         810|   -5.733901|   -8.520893|    0.824010|    0.012021|
|         811|   -5.793374|   -8.525415|    0.824011|    0.012021|
|         812|   -5.834516|   -8.529424|    0.824011|    0.012021|
|         813|   -5.860040|   -8.532918|    0.824011|    0.012021|
|         814|   -5.872865|   -8.535946|    0.824012|    0.012021|
|         815|   -5.878519|   -8.538554|    0.824012|    0.012021|
|         816|   -5.883891|   -8.540743|    0.824012|    0.012021|
|         817|   -5.893889|   -8.542507|    0.824012|    0.012021|
|         818|   -5.909925|   -8.543857|    0.824013|    0.012021|
|         819|   -5.930442|   -8.544846|    0.824013|    0.012022|
|         820|   -5.952450|   -8.545551|    0.824013|    0.012022|
|         821|   -5.973387|   -8.546055|    0.824013|    0.012022|
|         822|   -5.992419|   -8.546436|    0.824013|    0.012022|
|         823|   -6.010362|   -8.546751|    0.824013|    0.012022|
|         824|   -6.028525|   -8.547051|    0.824014|    0.012022|
|         825|   -6.047602|   -8.547392|    0.824014|    0.012022|
|         826|   -6.067298|   -8.547833|    0.824014|    0.012022|
|         827|   -6.086589|   -8.548438|    0.824014|    0.012022|
|         828|   -6.104228|   -8.549272|    0.824014|    0.012022|
|         829|   -6.119169|   -8.550384|    0.824014|    0.012022|
|         830|   -6.130823|   -8.551829|    0.824014|    0.012022|
|         831|   -6.139169|   -8.553664|    0.824014|    0.012022|
|         832|   -6.144765|   -8.555910|    0.824014|    0.012022|
|         833|   -6.148634|   -8.558580|    0.824013|    0.012022|
|         834|   -6.152019|   -8.561672|    0.824013|    0.012022|
|         835|   -6.156090|   -8.565166|    0.824013|    0.012022|
|         836|   -6.161717|   -8.569030|    0.824013|    0.012022|
|         837|   -6.169350|   -8.573221|    0.824013|    0.012022|
|         838|   -6.178996|   -8.577685|    0.824013|    0.012022|
|         839|   -6.190253|   -8.582364|    0.824013|    0.012022|
|         840|   -6.202373|   -8.587195|    0.824012|    0.012022|
|         841|   -6.214379|   -8.592119|    0.824012|    0.012021|
|         842|   -6.225259|   -8.597081|    0.824012|    0.012021|
|         843|   -6.234216|   -8.602031|    0.824012|    0.012021|
|         844|   -6.240909|   -8.606929|    0.824012|    0.012021|
|         845|   -6.245550|   -8.611744|    0.824011|    0.012021|
|         846|   -6.248815|   -8.616452|    0.824011|    0.012021|
|         847|   -6.251612|   -8.621040|    0.824011|    0.012021|
|         848|   -6.254816|   -8.625501|    0.824011|    0.012021|
|         849|   -6.259084|   -8.629833|    0.824010|    0.012021|
|         850|   -6.264759|   -8.634040|    0.824010|    0.012021|
|         851|   -6.271879|   -8.638122|    0.824010|    0.012021|
|         852|   -6.280227|   -8.642103|    0.824010|    0.012021|
|         853|   -6.289423|   -8.645972|    0.824009|    0.012021|
|         854|   -6.299024|   -8.649727|    0.824009|    0.012021|
|         855|   -6.308624|   -8.653358|    0.824009|    0.012021|
|         856|   -6.317930|   -8.656851|    0.824009|    0.012021|
|         857|   -6.326806|   -8.660190|    0.824008|    0.012021|
|         858|   -6.335267|   -8.663350|    0.824008|    0.012021|
|         859|   -6.343444|   -8.666305|    0.824008|    0.012021|
|         860|   -6.351526|   -8.669026|    0.824008|    0.012021|
|         861|   -6.359707|   -8.671484|    0.824007|    0.012021|
|         862|   -6.368138|   -8.673654|    0.824007|    0.012021|
|         863|   -6.376911|   -8.675517|    0.824007|    0.012021|
|         864|   -6.386054|   -8.677066|    0.824007|    0.012021|
|         865|   -6.395545|   -8.678303|    0.824006|    0.012021|
|         866|   -6.405328|   -8.679246|    0.824006|    0.012021|
|         867|   -6.415333|   -8.679928|    0.824006|    0.012021|
|         868|   -6.425486|   -8.680394|    0.824006|    0.012021|
|         869|   -6.435724|   -8.680702|    0.824005|    0.012021|
|         870|   -6.445989|   -8.680916|    0.824005|    0.012021|
|         871|   -6.456230|   -8.681110|    0.824005|    0.012021|
|         872|   -6.466391|   -8.681357|    0.824005|    0.012021|
|         873|   -6.476410|   -8.681729|    0.824004|    0.012021|
|         874|   -6.486213|   -8.682293|    0.824004|    0.012021|
|         875|   -6.495712|   -8.683106|    0.824004|    0.012021|
|         876|   -6.504808|   -8.684215|    0.824004|    0.012021|
|         877|   -6.513395|   -8.685649|    0.824004|    0.012021|
|         878|   -6.521367|   -8.687426|    0.824003|    0.012021|
|         879|   -6.528625|   -8.689545|    0.824003|    0.012021|
|         880|   -6.535082|   -8.691987|    0.824003|    0.012021|
|         881|   -6.540669|   -8.694716|    0.824003|    0.012021|
|         882|   -6.545342|   -8.697682|    0.824003|    0.012021|
|         883|   -6.549080|   -8.700819|    0.824003|    0.012021|
|         884|   -6.551888|   -8.704049|    0.824003|    0.012021|
|         885|   -6.553794|   -8.707287|    0.824003|    0.012021|
|         886|   -6.554852|   -8.710445|    0.824003|    0.012021|
|         887|   -6.555132|   -8.713434|    0.824003|    0.012021|
|         888|   -6.554720|   -8.716172|    0.824003|    0.012021|
|         889|   -6.553712|   -8.718591|    0.824003|    0.012021|
|         890|   -6.552209|   -8.720637|    0.824003|    0.012021|
|         891|   -6.550315|   -8.722280|    0.824003|    0.012021|
|         892|   -6.548129|   -8.723510|    0.824003|    0.012021|
|         893|   -6.545747|   -8.724341|    0.824003|    0.012021|
|         894|   -6.543257|   -8.724811|    0.824003|    0.012021|
|         895|   -6.540739|   -8.724975|    0.824003|    0.012021|
|         896|   -6.538263|   -8.724904|    0.824003|    0.012021|
|         897|   -6.535890|   -8.724675|    0.824004|    0.012021|
|         898|   -6.533673|   -8.724372|    0.824004|    0.012021|
|         899|   -6.531658|   -8.724075|    0.824004|    0.012021|
|         900|   -6.529880|   -8.723856|    0.824004|    0.012021|
|         901|   -6.528371|   -8.723775|    0.824004|    0.012021|
+-----------------------------------------------------------------------+
|Fixed CL Mode                           |Value                         |
+-----------------------------------------------------------------------+
|Current CL                              |0.824004                      |
|Target CL                               |0.824                         |
|Previous AOA                            |2.79044                       |
[...]
|        5298|   -6.037291|   -7.944707|    0.824237|    0.012026|
|        5299|   -6.043939|   -7.948351|    0.824237|    0.012026|
|        5300|   -6.050202|   -7.952015|    0.824237|    0.012025|
|        5301|   -6.056044|   -7.955715|    0.824237|    0.012025|
|        5302|   -6.061436|   -7.959462|    0.824238|    0.012025|
|        5303|   -6.066363|   -7.963265|    0.824238|    0.012025|
|        5304|   -6.070818|   -7.967130|    0.824238|    0.012025|
|        5305|   -6.074810|   -7.971061|    0.824238|    0.012025|
|        5306|   -6.078357|   -7.975061|    0.824238|    0.012025|
|        5307|   -6.081487|   -7.979131|    0.824238|    0.012025|
|        5308|   -6.084238|   -7.983272|    0.824238|    0.012025|
|        5309|   -6.086656|   -7.987486|    0.824238|    0.012025|
|        5310|   -6.088790|   -7.991773|    0.824238|    0.012025|
|        5311|   -6.090696|   -7.996136|    0.824238|    0.012025|
|        5312|   -6.092427|   -8.000578|    0.824239|    0.012025|
|        5313|   -6.094042|   -8.005101|    0.824239|    0.012025|
|        5314|   -6.095595|   -8.009709|    0.824239|    0.012025|
|        5315|   -6.097138|   -8.014407|    0.824239|    0.012025|
|        5316|   -6.098719|   -8.019203|    0.824239|    0.012025|
|        5317|   -6.100381|   -8.024101|    0.824239|    0.012025|
|        5318|   -6.102163|   -8.029104|    0.824239|    0.012025|
|        5319|   -6.104096|   -8.034218|    0.824239|    0.012025|
|        5320|   -6.106207|   -8.039446|    0.824240|    0.012025|
|        5321|   -6.108516|   -8.044793|    0.824240|    0.012026|
|        5322|   -6.111036|   -8.050264|    0.824240|    0.012026|
|        5323|   -6.113773|   -8.055862|    0.824240|    0.012026|
|        5324|   -6.116726|   -8.061588|    0.824240|    0.012026|
|        5325|   -6.119890|   -8.067443|    0.824240|    0.012026|
|        5326|   -6.123251|   -8.073424|    0.824240|    0.012026|
|        5327|   -6.126790|   -8.079527|    0.824241|    0.012026|
|        5328|   -6.130483|   -8.085746|    0.824241|    0.012026|
|        5329|   -6.134300|   -8.092072|    0.824241|    0.012026|
|        5330|   -6.138209|   -8.098495|    0.824241|    0.012026|
|        5331|   -6.142171|   -8.105004|    0.824241|    0.012026|
|        5332|   -6.146147|   -8.111587|    0.824241|    0.012026|
|        5333|   -6.150097|   -8.118229|    0.824241|    0.012027|
|        5334|   -6.153980|   -8.124919|    0.824241|    0.012027|
|        5335|   -6.157755|   -8.131642|    0.824242|    0.012027|
|        5336|   -6.161385|   -8.138384|    0.824242|    0.012027|
|        5337|   -6.164838|   -8.145134|    0.824242|    0.012027|
|        5338|   -6.168085|   -8.151877|    0.824242|    0.012027|
|        5339|   -6.171105|   -8.158604|    0.824242|    0.012027|
|        5340|   -6.173882|   -8.165304|    0.824242|    0.012027|
|        5341|   -6.176410|   -8.171968|    0.824242|    0.012027|
|        5342|   -6.178691|   -8.178589|    0.824242|    0.012027|
|        5343|   -6.180733|   -8.185162|    0.824243|    0.012027|
|        5344|   -6.182553|   -8.191684|    0.824243|    0.012027|
|        5345|   -6.184177|   -8.198151|    0.824243|    0.012027|
|        5346|   -6.185633|   -8.204565|    0.824243|    0.012028|
|        5347|   -6.186957|   -8.210928|    0.824243|    0.012028|
|        5348|   -6.188187|   -8.217242|    0.824243|    0.012028|
|        5349|   -6.189366|   -8.223508|    0.824243|    0.012028|
|        5350|   -6.190536|   -8.229730|    0.824243|    0.012028|
|        5351|   -6.191738|   -8.235910|    0.824243|    0.012028|
|        5352|   -6.193017|   -8.242052|    0.824243|    0.012028|
|        5353|   -6.194411|   -8.248158|    0.824243|    0.012028|
|        5354|   -6.195957|   -8.254231|    0.824243|    0.012028|
|        5355|   -6.197692|   -8.260274|    0.824243|    0.012028|
|        5356|   -6.199644|   -8.266288|    0.824243|    0.012028|
|        5357|   -6.201840|   -8.272277|    0.824243|    0.012028|
|        5358|   -6.204303|   -8.278240|    0.824243|    0.012028|
|        5359|   -6.207050|   -8.284179|    0.824243|    0.012028|
|        5360|   -6.210094|   -8.290093|    0.824243|    0.012028|
|        5361|   -6.213442|   -8.295983|    0.824243|    0.012028|
|        5362|   -6.217098|   -8.301847|    0.824243|    0.012028|
|        5363|   -6.221060|   -8.307685|    0.824243|    0.012028|
|        5364|   -6.225320|   -8.313494|    0.824243|    0.012028|
|        5365|   -6.229867|   -8.319274|    0.824243|    0.012028|
|        5366|   -6.234685|   -8.325021|    0.824243|    0.012028|
|        5367|   -6.239752|   -8.330734|    0.824243|    0.012028|
|        5368|   -6.245041|   -8.336412|    0.824243|    0.012028|
|        5369|   -6.250523|   -8.342052|    0.824243|    0.012028|
|        5370|   -6.256162|   -8.347653|    0.824243|    0.012028|
|        5371|   -6.261920|   -8.353214|    0.824243|    0.012028|
|        5372|   -6.267755|   -8.358735|    0.824243|    0.012028|
|        5373|   -6.273622|   -8.364217|    0.824243|    0.012028|
|        5374|   -6.279474|   -8.369660|    0.824243|    0.012027|
|        5375|   -6.285263|   -8.375068|    0.824243|    0.012027|
|        5376|   -6.290941|   -8.380441|    0.824243|    0.012027|
|        5377|   -6.296461|   -8.385785|    0.824243|    0.012027|
|        5378|   -6.301776|   -8.391102|    0.824243|    0.012027|
|        5379|   -6.306846|   -8.396399|    0.824243|    0.012027|
|        5380|   -6.311631|   -8.401682|    0.824243|    0.012027|
|        5381|   -6.316099|   -8.406955|    0.824243|    0.012027|
|        5382|   -6.320224|   -8.412227|    0.824243|    0.012027|
|        5383|   -6.323985|   -8.417504|    0.824243|    0.012027|
|        5384|   -6.327370|   -8.422793|    0.824243|    0.012027|
|        5385|   -6.330374|   -8.428099|    0.824243|    0.012027|
|        5386|   -6.332998|   -8.433429|    0.824243|    0.012027|
|        5387|   -6.335251|   -8.438788|    0.824243|    0.012026|
|        5388|   -6.337147|   -8.444180|    0.824243|    0.012026|
|        5389|   -6.338704|   -8.449610|    0.824243|    0.012026|
|        5390|   -6.339945|   -8.455075|    0.824243|    0.012026|
|        5391|   -6.340896|   -8.460574|    0.824243|    0.012026|
|        5392|   -6.341584|   -8.466100|    0.824243|    0.012026|
|        5393|   -6.342036|   -8.471647|    0.824243|    0.012026|
|        5394|   -6.342280|   -8.477201|    0.824243|    0.012026|
|        5395|   -6.342343|   -8.482751|    0.824243|    0.012026|
|        5396|   -6.342249|   -8.488279|    0.824243|    0.012026|
|        5397|   -6.342020|   -8.493768|    0.824243|    0.012025|
|        5398|   -6.341679|   -8.499197|    0.824243|    0.012025|
|        5399|   -6.341241|   -8.504545|    0.824244|    0.012025|
|        5400|   -6.340723|   -8.509789|    0.824244|    0.012025|
|        5401|   -6.340137|   -8.514905|    0.824244|    0.012025|
|        5402|   -6.339494|   -8.519870|    0.824244|    0.012025|
|        5403|   -6.338803|   -8.524664|    0.824244|    0.012025|
|        5404|   -6.338070|   -8.529264|    0.824244|    0.012025|
|        5405|   -6.337301|   -8.533653|    0.824244|    0.012025|
|        5406|   -6.336499|   -8.537816|    0.824245|    0.012025|
|        5407|   -6.335669|   -8.541740|    0.824245|    0.012024|
|        5408|   -6.334812|   -8.545416|    0.824245|    0.012024|
|        5409|   -6.333931|   -8.548840|    0.824245|    0.012024|
|        5410|   -6.333028|   -8.552012|    0.824245|    0.012024|
|        5411|   -6.332105|   -8.554933|    0.824245|    0.012024|
|        5412|   -6.331165|   -8.557610|    0.824246|    0.012024|
|        5413|   -6.330211|   -8.560053|    0.824246|    0.012024|
|        5414|   -6.329246|   -8.562271|    0.824246|    0.012024|
|        5415|   -6.328274|   -8.564280|    0.824246|    0.012024|
|        5416|   -6.327299|   -8.566094|    0.824246|    0.012024|
|        5417|   -6.326326|   -8.567728|    0.824246|    0.012024|
|        5418|   -6.325362|   -8.569197|    0.824246|    0.012024|
|        5419|   -6.324412|   -8.570517|    0.824247|    0.012024|
|        5420|   -6.323484|   -8.571701|    0.824247|    0.012024|
|        5421|   -6.322587|   -8.572763|    0.824247|    0.012024|
|        5422|   -6.321728|   -8.573714|    0.824247|    0.012024|
|        5423|   -6.320918|   -8.574565|    0.824247|    0.012024|
|        5424|   -6.320167|   -8.575324|    0.824247|    0.012024|
|        5425|   -6.319486|   -8.576000|    0.824247|    0.012023|
|        5426|   -6.318887|   -8.576599|    0.824247|    0.012023|
|        5427|   -6.318381|   -8.577129|    0.824247|    0.012023|
|        5428|   -6.317983|   -8.577594|    0.824247|    0.012023|
|        5429|   -6.317705|   -8.578002|    0.824247|    0.012023|
|        5430|   -6.317561|   -8.578357|    0.824247|    0.012023|
|        5431|   -6.317566|   -8.578667|    0.824248|    0.012023|
|        5432|   -6.317734|   -8.578938|    0.824248|    0.012023|
|        5433|   -6.318078|   -8.579180|    0.824248|    0.012024|
|        5434|   -6.318614|   -8.579401|    0.824248|    0.012024|
|        5435|   -6.319353|   -8.579612|    0.824248|    0.012024|
|        5436|   -6.320310|   -8.579822|    0.824248|    0.012024|
|        5437|   -6.321496|   -8.580046|    0.824248|    0.012024|
|        5438|   -6.322922|   -8.580294|    0.824248|    0.012024|
|        5439|   -6.324598|   -8.580580|    0.824248|    0.012024|
|        5440|   -6.326532|   -8.580917|    0.824248|    0.012024|
|        5441|   -6.328730|   -8.581318|    0.824248|    0.012024|
|        5442|   -6.331195|   -8.581796|    0.824248|    0.012024|
|        5443|   -6.333931|   -8.582365|    0.824248|    0.012024|
|        5444|   -6.336937|   -8.583037|    0.824248|    0.012024|
|        5445|   -6.340209|   -8.583825|    0.824248|    0.012024|
|        5446|   -6.343741|   -8.584737|    0.824248|    0.012024|
|        5447|   -6.347524|   -8.585783|    0.824248|    0.012024|
|        5448|   -6.351545|   -8.586970|    0.824247|    0.012024|
|        5449|   -6.355788|   -8.588306|    0.824247|    0.012024|
|        5450|   -6.360234|   -8.589794|    0.824247|    0.012024|
|        5451|   -6.364858|   -8.591440|    0.824247|    0.012024|
|        5452|   -6.369635|   -8.593244|    0.824247|    0.012025|
|        5453|   -6.374533|   -8.595208|    0.824247|    0.012025|
|        5454|   -6.379518|   -8.597332|    0.824247|    0.012025|
|        5455|   -6.384554|   -8.599614|    0.824247|    0.012025|
|        5456|   -6.389598|   -8.602052|    0.824247|    0.012025|
|        5457|   -6.394610|   -8.604643|    0.824247|    0.012025|
|        5458|   -6.399544|   -8.607382|    0.824247|    0.012025|
|        5459|   -6.404355|   -8.610265|    0.824246|    0.012025|
|        5460|   -6.408998|   -8.613285|    0.824246|    0.012025|
|        5461|   -6.413426|   -8.616439|    0.824246|    0.012025|
|        5462|   -6.417596|   -8.619718|    0.824246|    0.012025|
|        5463|   -6.421470|   -8.623117|    0.824246|    0.012025|
|        5464|   -6.425010|   -8.626629|    0.824246|    0.012025|
|        5465|   -6.428184|   -8.630246|    0.824246|    0.012025|
|        5466|   -6.430969|   -8.633964|    0.824245|    0.012026|
|        5467|   -6.433346|   -8.637773|    0.824245|    0.012026|
|        5468|   -6.435304|   -8.641666|    0.824245|    0.012026|
|        5469|   -6.436840|   -8.645638|    0.824245|    0.012026|
|        5470|   -6.437958|   -8.649679|    0.824245|    0.012026|
|        5471|   -6.438669|   -8.653783|    0.824245|    0.012026|
|        5472|   -6.438994|   -8.657941|    0.824244|    0.012026|
|        5473|   -6.438957|   -8.662146|    0.824244|    0.012026|
|        5474|   -6.438588|   -8.666389|    0.824244|    0.012026|
|        5475|   -6.437922|   -8.670663|    0.824244|    0.012026|
|        5476|   -6.436996|   -8.674957|    0.824244|    0.012026|
|        5477|   -6.435851|   -8.679264|    0.824243|    0.012026|
|        5478|   -6.434529|   -8.683573|    0.824243|    0.012026|
|        5479|   -6.433070|   -8.687877|    0.824243|    0.012026|
|        5480|   -6.431515|   -8.692164|    0.824243|    0.012026|
|        5481|   -6.429906|   -8.696427|    0.824243|    0.012026|
|        5482|   -6.428278|   -8.700655|    0.824242|    0.012026|
|        5483|   -6.426670|   -8.704839|    0.824242|    0.012026|
|        5484|   -6.425113|   -8.708972|    0.824242|    0.012026|
|        5485|   -6.423638|   -8.713044|    0.824242|    0.012026|
|        5486|   -6.422274|   -8.717047|    0.824242|    0.012026|
|        5487|   -6.421045|   -8.720977|    0.824241|    0.012026|
|        5488|   -6.419973|   -8.724826|    0.824241|    0.012026|
|        5489|   -6.419077|   -8.728589|    0.824241|    0.012026|
|        5490|   -6.418374|   -8.732265|    0.824241|    0.012026|
|        5491|   -6.417878|   -8.735850|    0.824241|    0.012026|
|        5492|   -6.417600|   -8.739343|    0.824241|    0.012026|
|        5493|   -6.417550|   -8.742746|    0.824241|    0.012026|
|        5494|   -6.417733|   -8.746058|    0.824240|    0.012026|
|        5495|   -6.418156|   -8.749284|    0.824240|    0.012026|
|        5496|   -6.418821|   -8.752427|    0.824240|    0.012026|
|        5497|   -6.419731|   -8.755491|    0.824240|    0.012026|
|        5498|   -6.420884|   -8.758480|    0.824240|    0.012026|
|        5499|   -6.422281|   -8.761402|    0.824240|    0.012011|
+-----------------------------------------------------------------------+
|Fixed CL Mode (Finite Difference)       |Value                         |
+-----------------------------------------------------------------------+
|Delta CL / Delta AoA                    |0.239826                      |
|Delta CD / Delta CL                     |0.017256                      |
|Delta CMz / Delta CL                    |-0.00137112                   |
+-----------------------------------------------------------------------+
Writing Flow Meta-Data file: flow.meta

----------------------------- Solver Exit -------------------------------

Maximum number of iterations reached (ITER = 5500) before convergence.
+-----------------------------------------------------------------------+
|      Convergence Field     |     Value    |   Criterion  |  Converged |
+-----------------------------------------------------------------------+
|                    rms[Rho]|      -6.42228|         < -12|          No|
+-----------------------------------------------------------------------+
-------------------------------------------------------------------------

--------------------------- Finalizing Solver ---------------------------
Deleted CNumerics container.
Deleted CIntegration container.
Deleted CSolver container.
Deleted CIteration container.
Deleted CInterface container.
Deleted CGeometry container.
Deleted CFreeFormDefBox class.
Deleted CSurfaceMovement class.
Deleted CVolumetricMovement class.
Deleted CConfig container.
Deleted nInst container.
Deleted COutput class.
-------------------------------------------------------------------------

------------------------- Exit Success (SU2_CFD) ------------------------


-------------------------------------------------------------------------
|    ___ _   _ ___                                                      |
|   / __| | | |_  )   Release 8.0.0 "Harrier"                           |
|   \__ \ |_| |/ /                                                      |
|   |___/\___//___|   Suite (Solution Exporting Code)                   |
|                                                                       |
-------------------------------------------------------------------------
| SU2 Project Website: https://su2code.github.io                        |
|                                                                       |
| The SU2 Project is maintained by the SU2 Foundation                   |
| (http://su2foundation.org)                                            |
-------------------------------------------------------------------------
| Copyright 2012-2023, SU2 Contributors                                 |
|                                                                       |
| SU2 is free software; you can redistribute it and/or                  |
| modify it under the terms of the GNU Lesser General Public            |
| License as published by the Free Software Foundation; either          |
| version 2.1 of the License, or (at your option) any later version.    |
|                                                                       |
| SU2 is distributed in the hope that it will be useful,                |
| but WITHOUT ANY WARRANTY; without even the implied warranty of        |
| MERCHANTABILITY or FITNESS FOR A PARTICULAR PURPOSE. See the GNU      |
| Lesser General Public License for more details.                       |
|                                                                       |
| You should have received a copy of the GNU Lesser General Public      |
| License along with SU2. If not, see <http://www.gnu.org/licenses/>.   |
-------------------------------------------------------------------------

----------------- Physical Case Definition ( Zone 0 ) -------------------
Input mesh file name: mesh_RAE2822_turb_deform.su2

-------------------- Output Information ( Zone 0 ) ----------------------
The tabular file format is CSV (.csv).
Flow variables file name: flow.

------------- Config File Boundary Information ( Zone 0 ) ---------------
+-----------------------------------------------------------------------+
|                        Marker Type|                        Marker Name|
+-----------------------------------------------------------------------+
|                          Far-field|                           FARFIELD|
+-----------------------------------------------------------------------+
|                     Heat flux wall|                            AIRFOIL|
+-----------------------------------------------------------------------+
Two dimensional problem.
13937 grid points before partitioning.
22842 volume elements before partitioning.
2 surface markers.
192 boundary elements in index 0 (Marker = AIRFOIL).
40 boundary elements in index 1 (Marker = FARFIELD).
Executing the partitioning functions.
Building the graph adjacency structure.
Calling ParMETIS... graph partitioning complete (831 edge cuts).
Distributing ParMETIS coloring.
Rebalancing vertices.
Rebalancing volume element connectivity.
Rebalancing markers and surface elements.
14875 vertices including ghost points. 
23674 interior elements including halo cells. 
18780 triangles.
4894 quadrilaterals.
Establishing MPI communication patterns.
Identify vertices.
Storing a mapping from global to local point index.

------------------------- Solution Postprocessing -----------------------
Reading and storing the solution from restart_flow.
Volume output fields: COORDINATES, SOLUTION
  Info: Ignoring the following screen output fields:
  RMS_DENSITY, RMS_NU_TILDE, LIFT, DRAG
Screen output fields: INNER_ITER
  Info: Ignoring the following history output groups:
  RMS_RES, AERO_COEFF
History output group(s): ITER
Warning: No (valid) fields chosen for convergence monitoring. Convergence monitoring inactive.
Warning: No (valid) fields chosen for time convergence monitoring. Time convergence monitoring inactive.
|Paraview                           |flow.vtu                           |
|Paraview surface                   |surface_flow.vtu                   |
|CSV file                           |surface_flow.csv                   |

------------------------- Finalize Solver -------------------------
Deleted CGeometry container.
Deleted CSolver class.
Deleted CConfig container.
Deleted COutput class.

Completed in 0.018402 seconds on 6 cores.

------------------------- Exit Success (SU2_SOL) ------------------------

